
 PRINT DOF  NODAL SOLUTION PER NODE
1

 ***** ANSYS - ENGINEERING ANALYSIS SYSTEM  RELEASE 15.0      *****
 ANSYS Academic Research                           
 00203145          VERSION=LINUX x64     17:53:11  SEP 22, 2014 CP=     11.378

                                                                               

 
  ***** POST1 NODAL DEGREE OF FREEDOM LISTING *****                            
 
  LOAD STEP=     1  SUBSTEP=     1                                             
   TIME=    1.0000      LOAD CASE=   0                                         
 
    NODE      VOLT  
       1   149.59    
       2 -0.15207    
       3   200.00    
       4   200.00    
       5   200.00    
       6   150.06    
       7   200.00    
       8   200.00    
       9   200.00    
      10  -150.67    
      11  -150.31    
      12  -200.00    
      13   200.00    
      14  -200.00    
      15   200.00    
      16  -200.00    
      17   200.00    
      18   200.00    
      19  -200.00    
      20  -200.00    
      21  -200.00    
      22  -200.00    
      23   200.00    
      24  -200.00    
      25  -300.00    
      26  -200.00    
      27  -200.00    
      28  -300.00    
      29  -200.00    
      30   300.00    
      31   300.00    
      32   300.00    
      33   300.00    
      34  -300.00    
      35  -300.00    
      36   150.01    
      37   149.74    
      38  0.26573E-01
      39 -0.97655E-01
1

 ***** ANSYS - ENGINEERING ANALYSIS SYSTEM  RELEASE 15.0      *****
 ANSYS Academic Research                           
 00203145          VERSION=LINUX x64     17:53:11  SEP 22, 2014 CP=     11.378

                                                                               

 
  ***** POST1 NODAL DEGREE OF FREEDOM LISTING *****                            
 
  LOAD STEP=     1  SUBSTEP=     1                                             
   TIME=    1.0000      LOAD CASE=   0                                         
 
    NODE      VOLT  
      40  -150.20    
      41  -150.66    
      42  -200.00    
      43   200.00    
      44 -0.42157E-01
      45   134.50    
      46   119.28    
      47   97.641    
      48   77.408    
      49   54.372    
      50   34.178    
      51   21.752    
      52   11.177    
      53   4.4628    
      54   200.00    
      55   200.00    
      56   200.00    
      57   200.00    
      58   200.00    
      59   200.00    
      60   200.00    
      61   200.00    
      62   200.00    
      63   200.00    
      64   200.00    
      65   200.00    
      66   200.00    
      67   200.00    
      68   200.00    
      69   200.00    
      70  -4.7334    
      71  -11.402    
      72  -21.999    
      73  -34.432    
      74  -54.614    
      75  -77.552    
      76  -97.945    
      77  -119.73    
      78  -135.12    
1

 ***** ANSYS - ENGINEERING ANALYSIS SYSTEM  RELEASE 15.0      *****
 ANSYS Academic Research                           
 00203145          VERSION=LINUX x64     17:53:11  SEP 22, 2014 CP=     11.379

                                                                               

 
  ***** POST1 NODAL DEGREE OF FREEDOM LISTING *****                            
 
  LOAD STEP=     1  SUBSTEP=     1                                             
   TIME=    1.0000      LOAD CASE=   0                                         
 
    NODE      VOLT  
      79   167.81    
      80   137.21    
      81   100.67    
      82   66.739    
      83   33.329    
      84  0.70486    
      85  -32.662    
      86  -66.799    
      87  -100.74    
      88  -137.28    
      89  -167.83    
      90  -167.85    
      91  -137.07    
      92  -100.83    
      93  -66.987    
      94  -33.538    
      95 -0.87761    
      96   32.503    
      97   66.631    
      98   100.62    
      99   137.19    
     100   167.78    
     101   200.00    
     102   200.00    
     103   200.00    
     104   200.00    
     105   200.00    
     106   200.00    
     107   200.00    
     108   200.00    
     109   200.00    
     110   200.00    
     111   200.00    
     112   200.00    
     113   200.00    
     114  -200.00    
     115  -200.00    
     116  -200.00    
     117  -200.00    
1

 ***** ANSYS - ENGINEERING ANALYSIS SYSTEM  RELEASE 15.0      *****
 ANSYS Academic Research                           
 00203145          VERSION=LINUX x64     17:53:11  SEP 22, 2014 CP=     11.380

                                                                               

 
  ***** POST1 NODAL DEGREE OF FREEDOM LISTING *****                            
 
  LOAD STEP=     1  SUBSTEP=     1                                             
   TIME=    1.0000      LOAD CASE=   0                                         
 
    NODE      VOLT  
     118  -200.00    
     119  -200.00    
     120  -200.00    
     121  -200.00    
     122  -200.00    
     123  -200.00    
     124  -200.00    
     125  -200.00    
     126  -200.00    
     127  -200.00    
     128  -200.00    
     129  -200.00    
     130   200.00    
     131   200.00    
     132   200.00    
     133  -194.42    
     134  -189.75    
     135  -185.21    
     136  -182.18    
     137  -179.90    
     138  -178.86    
     139  -178.40    
     140  -178.69    
     141  -179.54    
     142  -180.71    
     143  -182.76    
     144  -184.81    
     145  -187.74    
     146  -190.67    
     147  -194.60    
     148  -198.53    
     149  -202.76    
     150  -206.99    
     151  -211.24    
     152  -215.49    
     153  -219.74    
     154  -223.99    
     155  -228.93    
     156  -233.87    
1

 ***** ANSYS - ENGINEERING ANALYSIS SYSTEM  RELEASE 15.0      *****
 ANSYS Academic Research                           
 00203145          VERSION=LINUX x64     17:53:11  SEP 22, 2014 CP=     11.381

                                                                               

 
  ***** POST1 NODAL DEGREE OF FREEDOM LISTING *****                            
 
  LOAD STEP=     1  SUBSTEP=     1                                             
   TIME=    1.0000      LOAD CASE=   0                                         
 
    NODE      VOLT  
     157  -238.12    
     158  -242.37    
     159  -246.63    
     160  -250.88    
     161  -255.13    
     162  -259.38    
     163  -263.63    
     164  -267.88    
     165  -272.13    
     166  -276.38    
     167  -280.64    
     168  -284.89    
     169  -289.14    
     170  -293.39    
     171  -296.69    
     172  -200.00    
     173  -200.00    
     174  -200.00    
     175  -200.00    
     176  -200.00    
     177  -200.00    
     178  -200.00    
     179  -200.00    
     180  -200.00    
     181  -200.00    
     182  -200.00    
     183  -200.00    
     184  -200.00    
     185  -194.42    
     186  -189.79    
     187  -185.33    
     188  -182.28    
     189  -179.74    
     190  -178.68    
     191  -178.29    
     192  -178.65    
     193  -179.63    
     194  -180.95    
     195  -182.83    
1

 ***** ANSYS - ENGINEERING ANALYSIS SYSTEM  RELEASE 15.0      *****
 ANSYS Academic Research                           
 00203145          VERSION=LINUX x64     17:53:11  SEP 22, 2014 CP=     11.381

                                                                               

 
  ***** POST1 NODAL DEGREE OF FREEDOM LISTING *****                            
 
  LOAD STEP=     1  SUBSTEP=     1                                             
   TIME=    1.0000      LOAD CASE=   0                                         
 
    NODE      VOLT  
     196  -184.80    
     197  -187.73    
     198  -190.66    
     199  -194.60    
     200  -198.53    
     201  -202.76    
     202  -206.99    
     203  -211.24    
     204  -215.49    
     205  -219.74    
     206  -223.99    
     207  -228.93    
     208  -233.87    
     209  -238.12    
     210  -242.37    
     211  -246.63    
     212  -250.88    
     213  -255.13    
     214  -259.38    
     215  -263.63    
     216  -267.88    
     217  -272.13    
     218  -276.38    
     219  -280.64    
     220  -284.89    
     221  -289.14    
     222  -293.39    
     223  -296.69    
     224  -200.00    
     225  -200.00    
     226  -200.00    
     227   194.44    
     228   189.77    
     229   185.20    
     230   182.11    
     231   179.55    
     232   178.48    
     233   178.12    
     234   178.48    
1

 ***** ANSYS - ENGINEERING ANALYSIS SYSTEM  RELEASE 15.0      *****
 ANSYS Academic Research                           
 00203145          VERSION=LINUX x64     17:53:11  SEP 22, 2014 CP=     11.382

                                                                               

 
  ***** POST1 NODAL DEGREE OF FREEDOM LISTING *****                            
 
  LOAD STEP=     1  SUBSTEP=     1                                             
   TIME=    1.0000      LOAD CASE=   0                                         
 
    NODE      VOLT  
     235   179.41    
     236   180.64    
     237   182.54    
     238   184.58    
     239   187.53    
     240   190.48    
     241   194.43    
     242   198.37    
     243   202.60    
     244   206.83    
     245   211.09    
     246   215.35    
     247   219.61    
     248   223.87    
     249   228.82    
     250   233.76    
     251   238.02    
     252   242.28    
     253   246.54    
     254   250.80    
     255   255.05    
     256   259.31    
     257   263.57    
     258   267.83    
     259   272.09    
     260   276.35    
     261   280.60    
     262   284.86    
     263   289.12    
     264   293.38    
     265   296.69    
     266   300.00    
     267   300.00    
     268   300.00    
     269   300.00    
     270   300.00    
     271   300.00    
     272  -300.00    
     273  -300.00    
1

 ***** ANSYS - ENGINEERING ANALYSIS SYSTEM  RELEASE 15.0      *****
 ANSYS Academic Research                           
 00203145          VERSION=LINUX x64     17:53:11  SEP 22, 2014 CP=     11.383

                                                                               

 
  ***** POST1 NODAL DEGREE OF FREEDOM LISTING *****                            
 
  LOAD STEP=     1  SUBSTEP=     1                                             
   TIME=    1.0000      LOAD CASE=   0                                         
 
    NODE      VOLT  
     274  -300.00    
     275  -300.00    
     276  -300.00    
     277  -300.00    
     278  -296.69    
     279  -293.39    
     280  -289.45    
     281  -285.50    
     282  -281.56    
     283  -277.62    
     284  -273.36    
     285  -269.11    
     286  -264.86    
     287  -260.61    
     288  -256.36    
     289  -252.11    
     290  -247.86    
     291  -243.61    
     292  -239.36    
     293  -235.10    
     294  -230.85    
     295  -226.60    
     296  -222.35    
     297  -218.10    
     298  -213.85    
     299  -209.60    
     300  -205.38    
     301  -201.17    
     302  -197.20    
     303  -193.22    
     304  -189.86    
     305  -186.47    
     306  -183.82    
     307  -181.07    
     308  -178.49    
     309  -174.90    
     310  -169.63    
     311  -160.70    
     312  -149.43    
1

 ***** ANSYS - ENGINEERING ANALYSIS SYSTEM  RELEASE 15.0      *****
 ANSYS Academic Research                           
 00203145          VERSION=LINUX x64     17:53:11  SEP 22, 2014 CP=     11.384

                                                                               

 
  ***** POST1 NODAL DEGREE OF FREEDOM LISTING *****                            
 
  LOAD STEP=     1  SUBSTEP=     1                                             
   TIME=    1.0000      LOAD CASE=   0                                         
 
    NODE      VOLT  
     313  -131.05    
     314  -112.01    
     315  -88.203    
     316  -67.296    
     317  -45.202    
     318  -25.794    
     319  -6.5694    
     320   14.269    
     321   35.362    
     322   64.450    
     323   92.010    
     324   125.66    
     325   148.31    
     326   164.86    
     327   172.95    
     328   179.08    
     329   182.45    
     330   186.90    
     331   191.18    
     332   195.44    
     333   199.70    
     334   203.96    
     335   208.22    
     336   212.47    
     337   216.73    
     338   220.99    
     339   225.25    
     340   229.51    
     341   233.76    
     342   238.02    
     343   242.28    
     344   246.54    
     345   250.80    
     346   255.05    
     347   259.31    
     348   263.57    
     349   267.83    
     350   272.09    
     351   276.35    
1

 ***** ANSYS - ENGINEERING ANALYSIS SYSTEM  RELEASE 15.0      *****
 ANSYS Academic Research                           
 00203145          VERSION=LINUX x64     17:53:11  SEP 22, 2014 CP=     11.384

                                                                               

 
  ***** POST1 NODAL DEGREE OF FREEDOM LISTING *****                            
 
  LOAD STEP=     1  SUBSTEP=     1                                             
   TIME=    1.0000      LOAD CASE=   0                                         
 
    NODE      VOLT  
     352   280.60    
     353   284.86    
     354   289.12    
     355   293.38    
     356   296.69    
     357   194.35    
     358   189.68    
     359   185.13    
     360   181.96    
     361   179.54    
     362   178.68    
     363   178.30    
     364   178.49    
     365   179.45    
     366   180.58    
     367   182.57    
     368   184.60    
     369   187.54    
     370   190.48    
     371   194.43    
     372   198.37    
     373   202.60    
     374   206.83    
     375   211.09    
     376   215.35    
     377   219.61    
     378   223.87    
     379   228.82    
     380   233.76    
     381   238.02    
     382   242.28    
     383   246.54    
     384   250.80    
     385   255.05    
     386   259.31    
     387   263.57    
     388   267.83    
     389   272.09    
     390   276.35    
1

 ***** ANSYS - ENGINEERING ANALYSIS SYSTEM  RELEASE 15.0      *****
 ANSYS Academic Research                           
 00203145          VERSION=LINUX x64     17:53:11  SEP 22, 2014 CP=     11.385

                                                                               

 
  ***** POST1 NODAL DEGREE OF FREEDOM LISTING *****                            
 
  LOAD STEP=     1  SUBSTEP=     1                                             
   TIME=    1.0000      LOAD CASE=   0                                         
 
    NODE      VOLT  
     391   280.60    
     392   284.86    
     393   289.12    
     394   293.38    
     395   296.69    
     396   296.69    
     397   293.38    
     398   289.42    
     399   285.46    
     400   281.50    
     401   277.54    
     402   273.28    
     403   269.02    
     404   264.76    
     405   260.50    
     406   256.25    
     407   251.99    
     408   247.73    
     409   243.47    
     410   239.21    
     411   234.96    
     412   230.70    
     413   226.44    
     414   222.18    
     415   217.92    
     416   213.67    
     417   209.41    
     418   205.19    
     419   200.97    
     420   196.99    
     421   193.01    
     422   189.61    
     423   186.18    
     424   183.56    
     425   180.85    
     426   177.99    
     427   174.37    
     428   169.66    
     429   160.90    
1

 ***** ANSYS - ENGINEERING ANALYSIS SYSTEM  RELEASE 15.0      *****
 ANSYS Academic Research                           
 00203145          VERSION=LINUX x64     17:53:11  SEP 22, 2014 CP=     11.386

                                                                               

 
  ***** POST1 NODAL DEGREE OF FREEDOM LISTING *****                            
 
  LOAD STEP=     1  SUBSTEP=     1                                             
   TIME=    1.0000      LOAD CASE=   0                                         
 
    NODE      VOLT  
     430   149.57    
     431   131.01    
     432   111.84    
     433   88.025    
     434   67.121    
     435   45.028    
     436   25.605    
     437   6.3659    
     438  -14.525    
     439  -35.809    
     440  -64.794    
     441  -92.153    
     442  -125.96    
     443  -148.20    
     444  -164.93    
     445  -173.49    
     446  -179.02    
     447  -182.74    
     448  -187.09    
     449  -191.36    
     450  -195.61    
     451  -199.86    
     452  -204.11    
     453  -208.37    
     454  -212.62    
     455  -216.87    
     456  -221.12    
     457  -225.37    
     458  -229.62    
     459  -233.87    
     460  -238.12    
     461  -242.37    
     462  -246.63    
     463  -250.88    
     464  -255.13    
     465  -259.38    
     466  -263.63    
     467  -267.88    
     468  -272.13    
1

 ***** ANSYS - ENGINEERING ANALYSIS SYSTEM  RELEASE 15.0      *****
 ANSYS Academic Research                           
 00203145          VERSION=LINUX x64     17:53:11  SEP 22, 2014 CP=     11.386

                                                                               

 
  ***** POST1 NODAL DEGREE OF FREEDOM LISTING *****                            
 
  LOAD STEP=     1  SUBSTEP=     1                                             
   TIME=    1.0000      LOAD CASE=   0                                         
 
    NODE      VOLT  
     469  -276.38    
     470  -280.64    
     471  -284.89    
     472  -289.14    
     473  -293.39    
     474  -296.69    
     475   149.64    
     476   149.21    
     477   149.64    
     478   150.90    
     479   150.23    
     480   150.44    
     481   151.65    
     482   150.82    
     483   150.19    
     484   150.37    
     485   149.84    
     486   149.80    
     487   148.86    
     488   148.97    
     489   149.66    
     490   150.50    
     491   150.25    
     492 -0.18759    
     493 -0.32788    
     494 -0.17064    
     495 -0.90566E-01
     496 -0.11187    
     497 -0.11242    
     498 -0.12455    
     499 -0.16426    
     500 -0.10803    
     501 -0.24051E-01
     502 -0.10006    
     503 -0.27420    
     504 -0.19857    
     505   135.27    
     506   119.40    
     507   98.110    
1

 ***** ANSYS - ENGINEERING ANALYSIS SYSTEM  RELEASE 15.0      *****
 ANSYS Academic Research                           
 00203145          VERSION=LINUX x64     17:53:11  SEP 22, 2014 CP=     11.387

                                                                               

 
  ***** POST1 NODAL DEGREE OF FREEDOM LISTING *****                            
 
  LOAD STEP=     1  SUBSTEP=     1                                             
   TIME=    1.0000      LOAD CASE=   0                                         
 
    NODE      VOLT  
     508   78.215    
     509   54.916    
     510   34.507    
     511   21.894    
     512   11.097    
     513   4.5640    
     514   149.67    
     515   149.13    
     516   149.75    
     517   149.50    
     518   149.80    
     519   150.16    
     520   149.91    
     521   150.62    
     522   150.14    
     523   150.51    
     524   149.51    
     525   149.33    
     526   149.45    
     527   149.86    
     528   149.52    
     529   149.97    
     530   150.04    
     531  -149.80    
     532  -149.31    
     533  -149.65    
     534  -150.83    
     535  -150.65    
     536  -150.70    
     537  -149.95    
     538  -150.39    
     539  -150.10    
     540  -150.30    
     541  -150.05    
     542  -151.14    
     543  -150.27    
     544  -150.45    
     545  -149.93    
     546  -150.19    
1

 ***** ANSYS - ENGINEERING ANALYSIS SYSTEM  RELEASE 15.0      *****
 ANSYS Academic Research                           
 00203145          VERSION=LINUX x64     17:53:11  SEP 22, 2014 CP=     11.388

                                                                               

 
  ***** POST1 NODAL DEGREE OF FREEDOM LISTING *****                            
 
  LOAD STEP=     1  SUBSTEP=     1                                             
   TIME=    1.0000      LOAD CASE=   0                                         
 
    NODE      VOLT  
     547  -151.22    
     548  -200.00    
     549  -200.00    
     550  -200.00    
     551  -200.00    
     552  -200.00    
     553  -200.00    
     554  -200.00    
     555  -200.00    
     556  -200.00    
     557  -200.00    
     558  -200.00    
     559  -200.00    
     560  -200.00    
     561  -200.00    
     562  -200.00    
     563  -200.00    
     564  -200.00    
     565  -200.00    
     566  -200.00    
     567  -200.00    
     568  -200.00    
     569  -200.00    
     570  -200.00    
     571  -200.00    
     572  -200.00    
     573  -200.00    
     574  -200.00    
     575  -200.00    
     576  -200.00    
     577  -200.00    
     578  -200.00    
     579  -200.00    
     580  -200.00    
     581  -200.00    
     582  -200.00    
     583  -200.00    
     584  -200.00    
     585  -200.00    
1

 ***** ANSYS - ENGINEERING ANALYSIS SYSTEM  RELEASE 15.0      *****
 ANSYS Academic Research                           
 00203145          VERSION=LINUX x64     17:53:11  SEP 22, 2014 CP=     11.388

                                                                               

 
  ***** POST1 NODAL DEGREE OF FREEDOM LISTING *****                            
 
  LOAD STEP=     1  SUBSTEP=     1                                             
   TIME=    1.0000      LOAD CASE=   0                                         
 
    NODE      VOLT  
     586   200.00    
     587   200.00    
     588   200.00    
     589   200.00    
     590   200.00    
     591   200.00    
     592   200.00    
     593   200.00    
     594   200.00    
     595   200.00    
     596   200.00    
     597   200.00    
     598   200.00    
     599   200.00    
     600   200.00    
     601   200.00    
     602   200.00    
     603   200.00    
     604   200.00    
     605   200.00    
     606   200.00    
     607   200.00    
     608   200.00    
     609   200.00    
     610   200.00    
     611   200.00    
     612   200.00    
     613   200.00    
     614   200.00    
     615   200.00    
     616   200.00    
     617   200.00    
     618   200.00    
     619   200.00    
     620   200.00    
     621   200.00    
     622   200.00    
     623   200.00    
     624  -4.6775    
1

 ***** ANSYS - ENGINEERING ANALYSIS SYSTEM  RELEASE 15.0      *****
 ANSYS Academic Research                           
 00203145          VERSION=LINUX x64     17:53:11  SEP 22, 2014 CP=     11.389

                                                                               

 
  ***** POST1 NODAL DEGREE OF FREEDOM LISTING *****                            
 
  LOAD STEP=     1  SUBSTEP=     1                                             
   TIME=    1.0000      LOAD CASE=   0                                         
 
    NODE      VOLT  
     625  -11.366    
     626  -22.046    
     627  -34.625    
     628  -55.068    
     629  -78.405    
     630  -98.212    
     631  -119.56    
     632  -135.45    
     633 -0.14212    
     634 -0.22348    
     635 -0.15694    
     636 -0.13214    
     637 -0.10882    
     638 -0.96680E-01
     639 -0.11459    
     640 -0.13034    
     641 -0.13222    
     642 -0.16693    
     643 -0.97528E-01
     644  0.57982E-01
     645 -0.39538E-01
     646   135.27    
     647   119.40    
     648   98.034    
     649   78.141    
     650   54.862    
     651   34.417    
     652   21.846    
     653   11.177    
     654   4.4623    
     655   134.48    
     656   119.16    
     657   97.685    
     658   77.293    
     659   54.367    
     660   34.170    
     661   21.734    
     662   11.163    
     663   4.4952    
1

 ***** ANSYS - ENGINEERING ANALYSIS SYSTEM  RELEASE 15.0      *****
 ANSYS Academic Research                           
 00203145          VERSION=LINUX x64     17:53:11  SEP 22, 2014 CP=     11.390

                                                                               

 
  ***** POST1 NODAL DEGREE OF FREEDOM LISTING *****                            
 
  LOAD STEP=     1  SUBSTEP=     1                                             
   TIME=    1.0000      LOAD CASE=   0                                         
 
    NODE      VOLT  
     664  -4.6969    
     665  -11.388    
     666  -21.960    
     667  -34.388    
     668  -54.599    
     669  -77.677    
     670  -97.856    
     671  -119.57    
     672  -134.83    
     673  -149.78    
     674  -149.10    
     675  -150.98    
     676  -151.76    
     677  -151.49    
     678  -151.37    
     679  -150.20    
     680  -150.66    
     681  -150.67    
     682  -150.64    
     683  -149.95    
     684  -150.22    
     685  -150.25    
     686  -150.37    
     687  -150.00    
     688  -150.44    
     689  -150.37    
     690  -200.00    
     691  -200.00    
     692  -200.00    
     693  -200.00    
     694  -200.00    
     695  -200.00    
     696  -200.00    
     697  -200.00    
     698  -200.00    
     699  -200.00    
     700  -200.00    
     701  -200.00    
     702  -200.00    
1

 ***** ANSYS - ENGINEERING ANALYSIS SYSTEM  RELEASE 15.0      *****
 ANSYS Academic Research                           
 00203145          VERSION=LINUX x64     17:53:11  SEP 22, 2014 CP=     11.391

                                                                               

 
  ***** POST1 NODAL DEGREE OF FREEDOM LISTING *****                            
 
  LOAD STEP=     1  SUBSTEP=     1                                             
   TIME=    1.0000      LOAD CASE=   0                                         
 
    NODE      VOLT  
     703  -200.00    
     704  -200.00    
     705  -200.00    
     706  -200.00    
     707  -200.00    
     708  -200.00    
     709  -200.00    
     710  -200.00    
     711  -200.00    
     712  -200.00    
     713  -200.00    
     714  -200.00    
     715  -200.00    
     716  -200.00    
     717  -200.00    
     718  -200.00    
     719  -200.00    
     720  -200.00    
     721  -200.00    
     722  -200.00    
     723  -200.00    
     724  -200.00    
     725  -200.00    
     726  -200.00    
     727  -200.00    
     728   200.00    
     729   200.00    
     730   200.00    
     731   200.00    
     732   200.00    
     733   200.00    
     734   200.00    
     735   200.00    
     736   200.00    
     737   200.00    
     738   200.00    
     739   200.00    
     740   200.00    
     741   200.00    
1

 ***** ANSYS - ENGINEERING ANALYSIS SYSTEM  RELEASE 15.0      *****
 ANSYS Academic Research                           
 00203145          VERSION=LINUX x64     17:53:11  SEP 22, 2014 CP=     11.391

                                                                               

 
  ***** POST1 NODAL DEGREE OF FREEDOM LISTING *****                            
 
  LOAD STEP=     1  SUBSTEP=     1                                             
   TIME=    1.0000      LOAD CASE=   0                                         
 
    NODE      VOLT  
     742   200.00    
     743   200.00    
     744   200.00    
     745   200.00    
     746   200.00    
     747   200.00    
     748   200.00    
     749   200.00    
     750   200.00    
     751   200.00    
     752   200.00    
     753   200.00    
     754   200.00    
     755   200.00    
     756   200.00    
     757   200.00    
     758   200.00    
     759   200.00    
     760   200.00    
     761   200.00    
     762   200.00    
     763   200.00    
     764   200.00    
     765   200.00    
     766  -4.7315    
     767  -11.442    
     768  -22.164    
     769  -34.759    
     770  -55.213    
     771  -78.557    
     772  -98.419    
     773  -119.75    
     774  -135.52    
     775   200.00    
     776   200.00    
     777   200.00    
     778   200.00    
     779   200.00    
     780   200.00    
1

 ***** ANSYS - ENGINEERING ANALYSIS SYSTEM  RELEASE 15.0      *****
 ANSYS Academic Research                           
 00203145          VERSION=LINUX x64     17:53:11  SEP 22, 2014 CP=     11.392

                                                                               

 
  ***** POST1 NODAL DEGREE OF FREEDOM LISTING *****                            
 
  LOAD STEP=     1  SUBSTEP=     1                                             
   TIME=    1.0000      LOAD CASE=   0                                         
 
    NODE      VOLT  
     781   200.00    
     782   200.00    
     783   200.00    
     784   200.00    
     785   200.00    
     786   200.00    
     787   200.00    
     788   200.00    
     789   200.00    
     790   200.00    
     791  -200.00    
     792  -200.00    
     793  -200.00    
     794  -200.00    
     795  -200.00    
     796  -200.00    
     797  -200.00    
     798  -200.00    
     799  -200.00    
     800  -200.00    
     801  -200.00    
     802  -200.00    
     803  -200.00    
     804  -200.00    
     805  -200.00    
     806  -200.00    
     807  -200.00    
     808  -200.00    
     809  -200.00    
     810  -200.00    
     811  -200.00    
     812  -200.00    
     813  -200.00    
     814  -200.00    
     815  -200.00    
     816  -200.00    
     817  -200.00    
     818  -200.00    
     819  -200.00    
1

 ***** ANSYS - ENGINEERING ANALYSIS SYSTEM  RELEASE 15.0      *****
 ANSYS Academic Research                           
 00203145          VERSION=LINUX x64     17:53:11  SEP 22, 2014 CP=     11.393

                                                                               

 
  ***** POST1 NODAL DEGREE OF FREEDOM LISTING *****                            
 
  LOAD STEP=     1  SUBSTEP=     1                                             
   TIME=    1.0000      LOAD CASE=   0                                         
 
    NODE      VOLT  
     820  -200.00    
     821  -200.00    
     822  -200.00    
     823   200.00    
     824   200.00    
     825   200.00    
     826   200.00    
     827   200.00    
     828   200.00    
     829   200.00    
     830   200.00    
     831   200.00    
     832   200.00    
     833   200.00    
     834   200.00    
     835   200.00    
     836   200.00    
     837   200.00    
     838   200.00    
     839  -21.505    
     840  -85.076    
     841  -13.674    
     842  -15.621    
     843  -98.125    
     844  -136.07    
     845  -132.84    
     846  -103.83    
     847  -12.056    
     848  -12.086    
     849  -6.7157    
     850  -8.5127    
     851  -2.6114    
     852  -2.6215    
     853  -5.0999    
     854  -2.1921    
     855  -8.0172    
     856  -2.2347    
     857  -62.353    
     858  -71.371    
1

 ***** ANSYS - ENGINEERING ANALYSIS SYSTEM  RELEASE 15.0      *****
 ANSYS Academic Research                           
 00203145          VERSION=LINUX x64     17:53:11  SEP 22, 2014 CP=     11.393

                                                                               

 
  ***** POST1 NODAL DEGREE OF FREEDOM LISTING *****                            
 
  LOAD STEP=     1  SUBSTEP=     1                                             
   TIME=    1.0000      LOAD CASE=   0                                         
 
    NODE      VOLT  
     859  -86.746    
     860  -81.812    
     861  -37.380    
     862  -61.629    
     863  -47.266    
     864  -67.075    
     865  -94.304    
     866  -94.432    
     867  -107.80    
     868  -103.59    
     869  -73.768    
     870  -55.828    
     871  -79.056    
     872  -37.144    
     873  -48.455    
     874  -34.553    
     875  -36.856    
     876  -63.645    
     877  -106.15    
     878  -107.17    
     879  -115.99    
     880  -120.44    
     881  -47.169    
     882  -39.420    
     883  -86.966    
     884  -69.391    
     885  -33.545    
     886  -20.773    
     887  -23.239    
     888  -12.192    
     889  -12.845    
     890  -31.467    
     891  -14.876    
     892  -26.140    
     893  -39.382    
     894  -60.277    
     895  -79.537    
     896  -132.32    
     897  -132.64    
1

 ***** ANSYS - ENGINEERING ANALYSIS SYSTEM  RELEASE 15.0      *****
 ANSYS Academic Research                           
 00203145          VERSION=LINUX x64     17:53:11  SEP 22, 2014 CP=     11.394

                                                                               

 
  ***** POST1 NODAL DEGREE OF FREEDOM LISTING *****                            
 
  LOAD STEP=     1  SUBSTEP=     1                                             
   TIME=    1.0000      LOAD CASE=   0                                         
 
    NODE      VOLT  
     898  -125.01    
     899  -125.04    
     900  -133.80    
     901  -133.94    
     902  -133.61    
     903  -132.85    
     904  -137.09    
     905  -26.884    
     906  -15.433    
     907  -117.15    
     908  -95.987    
     909  -101.36    
     910  -99.808    
     911  -120.36    
     912  -137.74    
     913  -119.95    
     914  -118.14    
     915  -15.074    
     916  -14.780    
     917  -134.17    
     918  -134.45    
     919  -136.42    
     920  -136.15    
     921  -15.580    
     922  -14.698    
     923  -7.1135    
     924  -7.6606    
     925  -6.5333    
     926  -7.0590    
     927  -2.2808    
     928  -2.2587    
     929  -2.7161    
     930  -2.6904    
     931  -3.3832    
     932  -3.3870    
     933  -3.1757    
     934  -3.1251    
     935  -3.3789    
     936  -3.3359    
1

 ***** ANSYS - ENGINEERING ANALYSIS SYSTEM  RELEASE 15.0      *****
 ANSYS Academic Research                           
 00203145          VERSION=LINUX x64     17:53:11  SEP 22, 2014 CP=     11.395

                                                                               

 
  ***** POST1 NODAL DEGREE OF FREEDOM LISTING *****                            
 
  LOAD STEP=     1  SUBSTEP=     1                                             
   TIME=    1.0000      LOAD CASE=   0                                         
 
    NODE      VOLT  
     937  -8.1147    
     938  -7.6056    
     939  -8.2021    
     940  -6.3754    
     941  -5.2977    
     942  -24.762    
     943  -120.76    
     944  -117.11    
     945  -23.321    
     946  -125.25    
     947  -83.644    
     948  -115.61    
     949  -20.492    
     950  -116.71    
     951  -116.72    
     952  -99.012    
     953  -45.612    
     954  -19.074    
     955  -61.698    
     956  -51.294    
     957  -52.909    
     958  -91.703    
     959  -74.019    
     960  -5.1263    
     961  -6.1423    
     962   164.15    
     963  -165.40    
     964   122.42    
     965   65.983    
     966  -67.973    
     967 -0.30730    
     968  -181.01    
     969   173.22    
     970  -114.65    
     971   112.53    
     972  -113.87    
     973   11.075    
     974  -15.823    
     975   22.733    
1

 ***** ANSYS - ENGINEERING ANALYSIS SYSTEM  RELEASE 15.0      *****
 ANSYS Academic Research                           
 00203145          VERSION=LINUX x64     17:53:11  SEP 22, 2014 CP=     11.395

                                                                               

 
  ***** POST1 NODAL DEGREE OF FREEDOM LISTING *****                            
 
  LOAD STEP=     1  SUBSTEP=     1                                             
   TIME=    1.0000      LOAD CASE=   0                                         
 
    NODE      VOLT  
     976   55.679    
     977  -3.0319    
     978   78.128    
     979  -80.075    
     980  -60.520    
     981  -123.08    
     982  -94.002    
     983   96.650    
     984   113.92    
     985   37.466    
     986  -25.124    
     987  -1.1907    
     988  -40.916    
     989   19.861    
     990  -16.735    
     991  -49.220    
     992   45.971    
     993   12.754    
     994   41.371    
     995   64.111    
     996   73.237    
     997   121.19    
     998  -41.864    
     999  -21.125    
    1000  -70.052    
    1001  -64.549    
    1002  -113.46    
    1003  -149.28    
    1004  -149.13    
    1005   145.01    
    1006   141.51    
    1007   161.56    
    1008  -161.44    
    1009   129.60    
    1010   146.56    
    1011   90.616    
    1012   112.24    
    1013   6.6625    
    1014   17.549    
1

 ***** ANSYS - ENGINEERING ANALYSIS SYSTEM  RELEASE 15.0      *****
 ANSYS Academic Research                           
 00203145          VERSION=LINUX x64     17:53:11  SEP 22, 2014 CP=     11.396

                                                                               

 
  ***** POST1 NODAL DEGREE OF FREEDOM LISTING *****                            
 
  LOAD STEP=     1  SUBSTEP=     1                                             
   TIME=    1.0000      LOAD CASE=   0                                         
 
    NODE      VOLT  
    1015  -18.319    
    1016  -7.4175    
    1017  -107.81    
    1018  -86.642    
    1019  -145.19    
    1020  -127.52    
    1021  -179.51    
    1022  -177.46    
    1023   165.77    
    1024   170.53    
    1025   143.04    
    1026  -159.94    
    1027  -135.01    
    1028  -94.100    
    1029 -0.65742    
    1030   102.67    
    1031   140.55    
    1032  -47.250    
    1033   46.314    
    1034   25.362    
    1035  -31.423    
    1036  -1.7788    
    1037   87.198    
    1038  -90.545    
    1039   95.679    
    1040   85.524    
    1041   1.7817    
    1042   132.51    
    1043   134.64    
    1044   77.726    
    1045   136.04    
    1046   13.419    
    1047   11.664    
    1048   6.4422    
    1049   2.3560    
    1050   8.2734    
    1051   2.3509    
    1052   63.054    
    1053   70.917    
1

 ***** ANSYS - ENGINEERING ANALYSIS SYSTEM  RELEASE 15.0      *****
 ANSYS Academic Research                           
 00203145          VERSION=LINUX x64     17:53:11  SEP 22, 2014 CP=     11.397

                                                                               

 
  ***** POST1 NODAL DEGREE OF FREEDOM LISTING *****                            
 
  LOAD STEP=     1  SUBSTEP=     1                                             
   TIME=    1.0000      LOAD CASE=   0                                         
 
    NODE      VOLT  
    1054   79.644    
    1055   61.085    
    1056   63.261    
    1057   54.646    
    1058   62.613    
    1059   42.444    
    1060   81.718    
    1061   88.087    
    1062   94.056    
    1063   95.191    
    1064   100.70    
    1065   98.762    
    1066   119.23    
    1067   47.938    
    1068   82.139    
    1069   44.647    
    1070   33.860    
    1071   33.409    
    1072   40.883    
    1073   41.885    
    1074   107.43    
    1075   107.72    
    1076   111.56    
    1077   110.11    
    1078   116.27    
    1079   136.04    
    1080   70.273    
    1081   87.941    
    1082   31.565    
    1083   19.675    
    1084   20.896    
    1085   21.711    
    1086   118.64    
    1087   96.775    
    1088   58.800    
    1089   38.072    
    1090   30.015    
    1091   12.394    
    1092   25.666    
1

 ***** ANSYS - ENGINEERING ANALYSIS SYSTEM  RELEASE 15.0      *****
 ANSYS Academic Research                           
 00203145          VERSION=LINUX x64     17:53:11  SEP 22, 2014 CP=     11.398

                                                                               

 
  ***** POST1 NODAL DEGREE OF FREEDOM LISTING *****                            
 
  LOAD STEP=     1  SUBSTEP=     1                                             
   TIME=    1.0000      LOAD CASE=   0                                         
 
    NODE      VOLT  
    1093   14.475    
    1094   132.23    
    1095   132.45    
    1096   126.62    
    1097   126.37    
    1098   132.71    
    1099   133.13    
    1100   130.11    
    1101   130.37    
    1102   131.07    
    1103   131.24    
    1104   95.345    
    1105   116.56    
    1106   16.502    
    1107   28.145    
    1108   13.902    
    1109   13.877    
    1110   134.52    
    1111   135.03    
    1112   13.663    
    1113   12.617    
    1114   14.618    
    1115   13.293    
    1116   7.4671    
    1117   6.2069    
    1118   7.1030    
    1119   6.0621    
    1120   5.6056    
    1121   1.7799    
    1122   1.8741    
    1123   2.1467    
    1124   2.1403    
    1125   2.9384    
    1126   2.8632    
    1127   2.9123    
    1128   2.8556    
    1129   2.7846    
    1130   2.7706    
    1131   7.0220    
1

 ***** ANSYS - ENGINEERING ANALYSIS SYSTEM  RELEASE 15.0      *****
 ANSYS Academic Research                           
 00203145          VERSION=LINUX x64     17:53:11  SEP 22, 2014 CP=     11.398

                                                                               

 
  ***** POST1 NODAL DEGREE OF FREEDOM LISTING *****                            
 
  LOAD STEP=     1  SUBSTEP=     1                                             
   TIME=    1.0000      LOAD CASE=   0                                         
 
    NODE      VOLT  
    1132   7.2810    
    1133   7.3567    
    1134   5.3870    
    1135   4.7417    
    1136   23.916    
    1137   21.380    
    1138   118.53    
    1139   21.666    
    1140   114.57    
    1141   111.72    
    1142   109.68    
    1143   114.61    
    1144   102.17    
    1145   18.474    
    1146   43.194    
    1147   64.134    
    1148   121.59    
    1149   64.228    
    1150   47.798    
    1151   81.216    
    1152   79.746    
    1153   5.8852    
    1154   167.42    
    1155  -168.59    
    1156  -4.2472    
    1157   94.362    
    1158   103.09    
    1159  -87.209    
    1160  -105.26    
    1161  -29.006    
    1162  -40.594    
    1163   38.342    
    1164   69.936    
    1165  -68.513    
    1166 -0.39817    
    1167  -170.38    
    1168   171.37    
    1169 -0.81732    
    1170  -5.2095    
1

 ***** ANSYS - ENGINEERING ANALYSIS SYSTEM  RELEASE 15.0      *****
 ANSYS Academic Research                           
 00203145          VERSION=LINUX x64     17:53:11  SEP 22, 2014 CP=     11.399

                                                                               

 
  ***** POST1 NODAL DEGREE OF FREEDOM LISTING *****                            
 
  LOAD STEP=     1  SUBSTEP=     1                                             
   TIME=    1.0000      LOAD CASE=   0                                         
 
    NODE      VOLT  
    1171   1.5988    
    1172   33.306    
    1173  0.61020    
    1174  -18.466    
    1175  -33.538    
    1176  -36.517    
    1177  -35.065    
    1178  -39.802    
    1179   33.749    
    1180   33.047    
    1181   31.482    
    1182   28.127    
    1183   29.120    
    1184  -43.943    
    1185   21.567    
    1186  -27.322    
    1187   36.589    
    1188  -34.941    
    1189  -69.609    
    1190  -70.302    
    1191  -76.247    
    1192   70.981    
    1193   67.104    
    1194   66.547    
    1195   61.197    
    1196  -63.889    
    1197   48.173    
    1198   17.893    
    1199  -25.632    
    1200   48.054    
    1201  -11.040    
    1202   11.874    
    1203  -46.117    
    1204  -102.63    
    1205  -105.40    
    1206  -103.00    
    1207  -101.65    
    1208  -103.86    
    1209  -104.85    
1

 ***** ANSYS - ENGINEERING ANALYSIS SYSTEM  RELEASE 15.0      *****
 ANSYS Academic Research                           
 00203145          VERSION=LINUX x64     17:53:11  SEP 22, 2014 CP=     11.400

                                                                               

 
  ***** POST1 NODAL DEGREE OF FREEDOM LISTING *****                            
 
  LOAD STEP=     1  SUBSTEP=     1                                             
   TIME=    1.0000      LOAD CASE=   0                                         
 
    NODE      VOLT  
    1210  -108.03    
    1211   107.77    
    1212   104.78    
    1213   102.24    
    1214   101.92    
    1215   100.57    
    1216   99.950    
    1217   100.54    
    1218   72.252    
    1219  -62.259    
    1220   63.168    
    1221   17.975    
    1222  -18.422    
    1223  -55.305    
    1224  0.54811    
    1225  -139.21    
    1226  -137.70    
    1227  -138.18    
    1228  -134.90    
    1229   140.89    
    1230   137.33    
    1231   136.48    
    1232   139.37    
    1233   111.97    
    1234  -99.519    
    1235   104.67    
    1236   83.100    
    1237   60.593    
    1238   38.639    
    1239   17.423    
    1240   6.6747    
    1241  -7.5435    
    1242  -18.370    
    1243  -37.574    
    1244  -59.051    
    1245  -77.236    
    1246  -98.520    
    1247   103.93    
    1248   140.56    
1

 ***** ANSYS - ENGINEERING ANALYSIS SYSTEM  RELEASE 15.0      *****
 ANSYS Academic Research                           
 00203145          VERSION=LINUX x64     17:53:11  SEP 22, 2014 CP=     11.400

                                                                               

 
  ***** POST1 NODAL DEGREE OF FREEDOM LISTING *****                            
 
  LOAD STEP=     1  SUBSTEP=     1                                             
   TIME=    1.0000      LOAD CASE=   0                                         
 
    NODE      VOLT  
    1249   11.947    
    1250   44.782    
    1251  -44.282    
    1252  -10.694    
    1253  -139.65    
    1254  -103.11    
    1255  -170.94    
    1256  -170.71    
    1257  -167.93    
    1258  -167.55    
    1259  -169.23    
    1260  -169.03    
    1261  -167.99    
    1262  -168.26    
    1263  -166.19    
    1264   171.70    
    1265   171.94    
    1266   168.21    
    1267   168.70    
    1268   167.91    
    1269   168.17    
    1270   167.61    
    1271   167.29    
    1272   172.04    
    1273   132.69    
    1274   153.88    
    1275  -129.24    
    1276  -149.70    
    1277  -159.30    
    1278  -163.69    
    1279   169.60    
    1280   165.23    
    1281   139.09    
    1282  -128.95    
    1283   135.55    
    1284   136.84    
    1285   137.71    
    1286   144.25    
    1287  -136.89    
1

 ***** ANSYS - ENGINEERING ANALYSIS SYSTEM  RELEASE 15.0      *****
 ANSYS Academic Research                           
 00203145          VERSION=LINUX x64     17:53:11  SEP 22, 2014 CP=     11.401

                                                                               

 
  ***** POST1 NODAL DEGREE OF FREEDOM LISTING *****                            
 
  LOAD STEP=     1  SUBSTEP=     1                                             
   TIME=    1.0000      LOAD CASE=   0                                         
 
    NODE      VOLT  
    1288  -138.93    
    1289  -136.32    
    1290  -142.31    
    1291  -22.211    
    1292   23.285    
    1293  -73.072    
    1294  -39.371    
    1295 -0.86089    
    1296   41.278    
    1297   87.242    
    1298  -48.058    
    1299   54.464    
    1300   66.773    
    1301   65.483    
    1302   68.349    
    1303   73.602    
    1304  -79.987    
    1305  -71.801    
    1306  -68.515    
    1307  -70.718    
    1308  0.24385    
    1309  -8.6195    
    1310  -8.4256    
    1311  -1.9201    
    1312   11.031    
    1313  -200.00    
    1314  -200.00    
    1315  -200.00    
    1316  -200.00    
    1317  -200.00    
    1318  -200.00    
    1319  -200.00    
    1320  -200.00    
    1321  -200.00    
    1322  -200.00    
    1323  -200.00    
    1324  -200.00    
    1325  -200.00    
    1326  -200.00    
1

 ***** ANSYS - ENGINEERING ANALYSIS SYSTEM  RELEASE 15.0      *****
 ANSYS Academic Research                           
 00203145          VERSION=LINUX x64     17:53:11  SEP 22, 2014 CP=     11.402

                                                                               

 
  ***** POST1 NODAL DEGREE OF FREEDOM LISTING *****                            
 
  LOAD STEP=     1  SUBSTEP=     1                                             
   TIME=    1.0000      LOAD CASE=   0                                         
 
    NODE      VOLT  
    1327  -200.00    
    1328  -200.00    
    1329  -200.00    
    1330  -200.00    
    1331  -200.00    
    1332  -200.00    
    1333  -200.00    
    1334  -200.00    
    1335  -200.00    
    1336  -200.00    
    1337  -200.00    
    1338  -200.00    
    1339  -200.00    
    1340  -200.00    
    1341  -200.00    
    1342  -200.00    
    1343  -200.00    
    1344  -200.00    
    1345  -200.00    
    1346  -200.00    
    1347  -200.00    
    1348  -200.00    
    1349  -200.00    
    1350  -200.00    
    1351  -200.00    
    1352  -200.00    
    1353  -200.00    
    1354  -200.00    
    1355  -200.00    
    1356  -200.00    
    1357  -200.00    
    1358  -200.00    
    1359  -200.00    
    1360  -200.00    
    1361  -200.00    
    1362  -200.00    
    1363  -200.00    
    1364  -200.00    
    1365  -200.00    
1

 ***** ANSYS - ENGINEERING ANALYSIS SYSTEM  RELEASE 15.0      *****
 ANSYS Academic Research                           
 00203145          VERSION=LINUX x64     17:53:11  SEP 22, 2014 CP=     11.403

                                                                               

 
  ***** POST1 NODAL DEGREE OF FREEDOM LISTING *****                            
 
  LOAD STEP=     1  SUBSTEP=     1                                             
   TIME=    1.0000      LOAD CASE=   0                                         
 
    NODE      VOLT  
    1366  -200.00    
    1367  -200.00    
    1368  -200.00    
    1369  -200.00    
    1370  -200.00    
    1371  -200.00    
    1372  -200.00    
    1373  -200.00    
    1374  -200.00    
    1375  -200.00    
    1376  -200.00    
    1377  -200.00    
    1378  -200.00    
    1379  -200.00    
    1380  -200.00    
    1381  -200.00    
    1382  -200.00    
    1383  -200.00    
    1384  -200.00    
    1385  -200.00    
    1386  -200.00    
    1387  -200.00    
    1388  -200.00    
    1389  -200.00    
    1390  -200.00    
    1391  -200.00    
    1392  -200.00    
    1393  -200.00    
    1394  -200.00    
    1395  -200.00    
    1396  -200.00    
    1397  -200.00    
    1398  -200.00    
    1399  -200.00    
    1400  -200.00    
    1401  -200.00    
    1402  -200.00    
    1403  -200.00    
    1404  -200.00    
1

 ***** ANSYS - ENGINEERING ANALYSIS SYSTEM  RELEASE 15.0      *****
 ANSYS Academic Research                           
 00203145          VERSION=LINUX x64     17:53:11  SEP 22, 2014 CP=     11.403

                                                                               

 
  ***** POST1 NODAL DEGREE OF FREEDOM LISTING *****                            
 
  LOAD STEP=     1  SUBSTEP=     1                                             
   TIME=    1.0000      LOAD CASE=   0                                         
 
    NODE      VOLT  
    1405  -200.00    
    1406  -200.00    
    1407  -200.00    
    1408  -200.00    
    1409  -200.00    
    1410  -200.00    
    1411  -200.00    
    1412  -200.00    
    1413  -200.00    
    1414  -200.00    
    1415  -200.00    
    1416  -200.00    
    1417  -200.00    
    1418  -200.00    
    1419  -200.00    
    1420  -200.00    
    1421  -200.00    
    1422  -200.00    
    1423  -200.00    
    1424  -200.00    
    1425  -200.00    
    1426  -200.00    
    1427  -200.00    
    1428  -200.00    
    1429  -200.00    
    1430  -200.00    
    1431  -200.00    
    1432  -200.00    
    1433  -200.00    
    1434  -200.00    
    1435  -200.00    
    1436  -200.00    
    1437  -200.00    
    1438  -200.00    
    1439  -200.00    
    1440  -200.00    
    1441  -200.00    
    1442  -200.00    
    1443  -200.00    
1

 ***** ANSYS - ENGINEERING ANALYSIS SYSTEM  RELEASE 15.0      *****
 ANSYS Academic Research                           
 00203145          VERSION=LINUX x64     17:53:11  SEP 22, 2014 CP=     11.404

                                                                               

 
  ***** POST1 NODAL DEGREE OF FREEDOM LISTING *****                            
 
  LOAD STEP=     1  SUBSTEP=     1                                             
   TIME=    1.0000      LOAD CASE=   0                                         
 
    NODE      VOLT  
    1444  -200.00    
    1445  -200.00    
    1446  -200.00    
    1447  -200.00    
    1448  -200.00    
    1449  -200.00    
    1450  -200.00    
    1451  -200.00    
    1452  -164.27    
    1453  -168.84    
    1454  -156.58    
    1455  -157.65    
    1456  -181.46    
    1457  -180.05    
    1458  -154.46    
    1459  -177.66    
    1460  -154.44    
    1461  -176.96    
    1462  -166.23    
    1463  -165.30    
    1464  -169.96    
    1465  -167.65    
    1466  -168.76    
    1467  -166.19    
    1468  -165.89    
    1469  -168.69    
    1470  -165.19    
    1471  -167.66    
    1472  -165.45    
    1473  -169.22    
    1474  -165.83    
    1475  -168.45    
    1476  -164.81    
    1477  -165.74    
    1478  -162.81    
    1479  -166.27    
    1480  -89.171    
    1481  -65.134    
    1482  -100.26    
1

 ***** ANSYS - ENGINEERING ANALYSIS SYSTEM  RELEASE 15.0      *****
 ANSYS Academic Research                           
 00203145          VERSION=LINUX x64     17:53:11  SEP 22, 2014 CP=     11.405

                                                                               

 
  ***** POST1 NODAL DEGREE OF FREEDOM LISTING *****                            
 
  LOAD STEP=     1  SUBSTEP=     1                                             
   TIME=    1.0000      LOAD CASE=   0                                         
 
    NODE      VOLT  
    1483  -135.69    
    1484  -132.88    
    1485  -1.9766    
    1486  -97.942    
    1487  -12.041    
    1488  -6.5399    
    1489  -8.4338    
    1490  -2.5728    
    1491  -2.5541    
    1492  -64.972    
    1493  -84.953    
    1494  -80.996    
    1495  -65.914    
    1496  -62.883    
    1497  -75.701    
    1498  -96.798    
    1499  -98.380    
    1500  -102.97    
    1501  -98.701    
    1502  -80.389    
    1503  -47.436    
    1504  -34.259    
    1505  -47.038    
    1506  -41.446    
    1507  -57.133    
    1508  -49.493    
    1509  -33.064    
    1510  -106.74    
    1511  -108.93    
    1512  -116.23    
    1513  -118.39    
    1514  -87.361    
    1515  -69.666    
    1516  -67.148    
    1517  -34.668    
    1518  -20.432    
    1519  -20.916    
    1520  -37.100    
    1521  -35.556    
1

 ***** ANSYS - ENGINEERING ANALYSIS SYSTEM  RELEASE 15.0      *****
 ANSYS Academic Research                           
 00203145          VERSION=LINUX x64     17:53:11  SEP 22, 2014 CP=     11.405

                                                                               

 
  ***** POST1 NODAL DEGREE OF FREEDOM LISTING *****                            
 
  LOAD STEP=     1  SUBSTEP=     1                                             
   TIME=    1.0000      LOAD CASE=   0                                         
 
    NODE      VOLT  
    1522  -21.106    
    1523  -132.67    
    1524  -132.86    
    1525  -125.63    
    1526  -125.76    
    1527  -134.85    
    1528  -135.03    
    1529  -132.90    
    1530  -132.96    
    1531  -137.12    
    1532  -28.120    
    1533  -16.517    
    1534  -116.90    
    1535  -95.755    
    1536  -12.788    
    1537  -32.805    
    1538  -14.853    
    1539  -26.068    
    1540  -40.533    
    1541  -61.545    
    1542  -81.634    
    1543  -103.56    
    1544  -102.12    
    1545  -119.75    
    1546  -136.97    
    1547  -119.91    
    1548  -118.45    
    1549  -14.577    
    1550  -14.347    
    1551  -134.10    
    1552  -134.38    
    1553  -135.93    
    1554  -136.04    
    1555  -13.444    
    1556  -13.103    
    1557  -14.281    
    1558  -13.048    
    1559  -12.296    
    1560  -7.6611    
1

 ***** ANSYS - ENGINEERING ANALYSIS SYSTEM  RELEASE 15.0      *****
 ANSYS Academic Research                           
 00203145          VERSION=LINUX x64     17:53:11  SEP 22, 2014 CP=     11.406

                                                                               

 
  ***** POST1 NODAL DEGREE OF FREEDOM LISTING *****                            
 
  LOAD STEP=     1  SUBSTEP=     1                                             
   TIME=    1.0000      LOAD CASE=   0                                         
 
    NODE      VOLT  
    1561  -6.4360    
    1562  -7.3538    
    1563  -5.6486    
    1564  -6.0648    
    1565  -2.1254    
    1566  -2.0327    
    1567  -2.3077    
    1568  -2.3140    
    1569  -3.1999    
    1570  -3.2211    
    1571  -3.0010    
    1572  -3.0347    
    1573  -2.9596    
    1574  -2.8685    
    1575  -6.9528    
    1576  -7.3945    
    1577  -7.7596    
    1578  -5.4803    
    1579  -4.8947    
    1580  -20.514    
    1581  -23.333    
    1582  -120.84    
    1583  -117.69    
    1584  -22.678    
    1585  -122.89    
    1586  -87.535    
    1587  -48.681    
    1588  -19.132    
    1589  -115.13    
    1590  -115.06    
    1591  -118.39    
    1592  -100.72    
    1593  -53.450    
    1594  -62.600    
    1595  -47.737    
    1596  -84.365    
    1597  -79.967    
    1598  -6.0075    
    1599   164.14    
1

 ***** ANSYS - ENGINEERING ANALYSIS SYSTEM  RELEASE 15.0      *****
 ANSYS Academic Research                           
 00203145          VERSION=LINUX x64     17:53:11  SEP 22, 2014 CP=     11.407

                                                                               

 
  ***** POST1 NODAL DEGREE OF FREEDOM LISTING *****                            
 
  LOAD STEP=     1  SUBSTEP=     1                                             
   TIME=    1.0000      LOAD CASE=   0                                         
 
    NODE      VOLT  
    1600  -122.54    
    1601   123.88    
    1602   67.590    
    1603  -66.939    
    1604 -0.22543    
    1605  -173.28    
    1606   174.42    
    1607   113.44    
    1608  -112.97    
    1609  -161.73    
    1610   13.721    
    1611  -13.060    
    1612   24.382    
    1613  0.52948    
    1614  -57.204    
    1615  -78.535    
    1616  -114.38    
    1617  -96.972    
    1618   58.148    
    1619   78.996    
    1620   97.868    
    1621   115.79    
    1622   39.757    
    1623  -24.100    
    1624 -0.20608    
    1625  -39.051    
    1626   20.589    
    1627   47.685    
    1628   15.261    
    1629  -14.007    
    1630  -47.177    
    1631   41.983    
    1632   64.741    
    1633   74.423    
    1634   121.68    
    1635  -41.919    
    1636  -20.973    
    1637  -73.885    
    1638  -64.665    
1

 ***** ANSYS - ENGINEERING ANALYSIS SYSTEM  RELEASE 15.0      *****
 ANSYS Academic Research                           
 00203145          VERSION=LINUX x64     17:53:11  SEP 22, 2014 CP=     11.408

                                                                               

 
  ***** POST1 NODAL DEGREE OF FREEDOM LISTING *****                            
 
  LOAD STEP=     1  SUBSTEP=     1                                             
   TIME=    1.0000      LOAD CASE=   0                                         
 
    NODE      VOLT  
    1639  -145.18    
    1640  -121.31    
    1641   146.17    
    1642   142.60    
    1643  -141.61    
    1644   129.62    
    1645   90.986    
    1646   112.64    
    1647   6.7552    
    1648   17.632    
    1649  -18.124    
    1650  -7.2585    
    1651  -112.34    
    1652  -90.729    
    1653  -146.75    
    1654  -129.80    
    1655   146.52    
    1656   161.40    
    1657   167.13    
    1658   171.79    
    1659  -170.59    
    1660  -165.85    
    1661  -143.15    
    1662   145.21    
    1663   140.63    
    1664  -140.79    
    1665  -102.76    
    1666 -0.41512    
    1667   103.54    
    1668  -47.359    
    1669   47.659    
    1670  -27.666    
    1671   28.733    
    1672  0.12914    
    1673   88.840    
    1674  -87.939    
    1675   53.625    
    1676   12.137    
    1677   11.264    
1

 ***** ANSYS - ENGINEERING ANALYSIS SYSTEM  RELEASE 15.0      *****
 ANSYS Academic Research                           
 00203145          VERSION=LINUX x64     17:53:11  SEP 22, 2014 CP=     11.409

                                                                               

 
  ***** POST1 NODAL DEGREE OF FREEDOM LISTING *****                            
 
  LOAD STEP=     1  SUBSTEP=     1                                             
   TIME=    1.0000      LOAD CASE=   0                                         
 
    NODE      VOLT  
    1678   13.149    
    1679   21.376    
    1680   79.583    
    1681   95.915    
    1682   11.646    
    1683   1.8422    
    1684   130.95    
    1685   132.58    
    1686   136.53    
    1687   4.8972    
    1688   2.1822    
    1689   7.9433    
    1690   2.1339    
    1691   74.630    
    1692   69.647    
    1693   66.882    
    1694   55.389    
    1695   61.582    
    1696   42.621    
    1697   80.223    
    1698   84.944    
    1699   90.983    
    1700   101.29    
    1701   102.25    
    1702   116.05    
    1703   47.977    
    1704   81.666    
    1705   33.907    
    1706   34.907    
    1707   39.232    
    1708   41.078    
    1709   107.12    
    1710   105.48    
    1711   104.94    
    1712   109.88    
    1713   121.03    
    1714   136.41    
    1715   70.292    
    1716   87.996    
1

 ***** ANSYS - ENGINEERING ANALYSIS SYSTEM  RELEASE 15.0      *****
 ANSYS Academic Research                           
 00203145          VERSION=LINUX x64     17:53:11  SEP 22, 2014 CP=     11.409

                                                                               

 
  ***** POST1 NODAL DEGREE OF FREEDOM LISTING *****                            
 
  LOAD STEP=     1  SUBSTEP=     1                                             
   TIME=    1.0000      LOAD CASE=   0                                         
 
    NODE      VOLT  
    1717   82.713    
    1718   36.779    
    1719   18.885    
    1720   132.61    
    1721   132.45    
    1722   126.75    
    1723   126.71    
    1724   130.89    
    1725   130.42    
    1726   125.43    
    1727   125.49    
    1728   135.88    
    1729   136.01    
    1730   95.582    
    1731   116.59    
    1732   16.727    
    1733   28.389    
    1734   114.75    
    1735   93.243    
    1736   66.439    
    1737   44.813    
    1738   25.579    
    1739   14.483    
    1740   130.83    
    1741   131.31    
    1742   12.835    
    1743   12.204    
    1744   14.785    
    1745   13.442    
    1746   7.5455    
    1747   5.6748    
    1748   5.3909    
    1749   5.9992    
    1750   5.6260    
    1751   1.8699    
    1752   1.9352    
    1753   2.1108    
    1754   2.0655    
    1755   2.6237    
1

 ***** ANSYS - ENGINEERING ANALYSIS SYSTEM  RELEASE 15.0      *****
 ANSYS Academic Research                           
 00203145          VERSION=LINUX x64     17:53:11  SEP 22, 2014 CP=     11.410

                                                                               

 
  ***** POST1 NODAL DEGREE OF FREEDOM LISTING *****                            
 
  LOAD STEP=     1  SUBSTEP=     1                                             
   TIME=    1.0000      LOAD CASE=   0                                         
 
    NODE      VOLT  
    1756   2.5481    
    1757   1.8077    
    1758   1.8678    
    1759   2.8220    
    1760   2.8803    
    1761   7.0929    
    1762   4.6144    
    1763   6.4988    
    1764   5.2163    
    1765   4.7810    
    1766   24.239    
    1767   20.668    
    1768   111.02    
    1769   19.279    
    1770   57.539    
    1771   114.68    
    1772   120.44    
    1773   100.63    
    1774   110.71    
    1775   101.34    
    1776   64.100    
    1777   122.19    
    1778   61.683    
    1779   51.847    
    1780   83.445    
    1781   5.3773    
    1782   167.59    
    1783   48.095    
    1784   14.071    
    1785  -3.4754    
    1786   69.382    
    1787   106.45    
    1788   101.47    
    1789   102.01    
    1790   97.877    
    1791   112.31    
    1792  -91.983    
    1793  -83.673    
    1794   37.852    
1

 ***** ANSYS - ENGINEERING ANALYSIS SYSTEM  RELEASE 15.0      *****
 ANSYS Academic Research                           
 00203145          VERSION=LINUX x64     17:53:11  SEP 22, 2014 CP=     11.411

                                                                               

 
  ***** POST1 NODAL DEGREE OF FREEDOM LISTING *****                            
 
  LOAD STEP=     1  SUBSTEP=     1                                             
   TIME=    1.0000      LOAD CASE=   0                                         
 
    NODE      VOLT  
    1795  -95.975    
    1796  -20.633    
    1797  -39.935    
    1798  -69.176    
    1799 -0.39582    
    1800  -170.38    
    1801   170.53    
    1802   12.948    
    1803   8.8454    
    1804   30.918    
    1805   4.5503    
    1806   2.2043    
    1807   46.735    
    1808   43.770    
    1809   39.186    
    1810  -28.791    
    1811  -32.894    
    1812  -33.531    
    1813  -18.944    
    1814  -24.071    
    1815   37.814    
    1816  -33.309    
    1817   38.303    
    1818   25.545    
    1819  -27.063    
    1820   72.393    
    1821   69.475    
    1822   76.023    
    1823  -67.627    
    1824  -63.055    
    1825  -56.114    
    1826  -95.080    
    1827   73.057    
    1828  -46.464    
    1829  -8.7838    
    1830   47.661    
    1831   51.921    
    1832   19.476    
    1833  -24.677    
1

 ***** ANSYS - ENGINEERING ANALYSIS SYSTEM  RELEASE 15.0      *****
 ANSYS Academic Research                           
 00203145          VERSION=LINUX x64     17:53:11  SEP 22, 2014 CP=     11.413

                                                                               

 
  ***** POST1 NODAL DEGREE OF FREEDOM LISTING *****                            
 
  LOAD STEP=     1  SUBSTEP=     1                                             
   TIME=    1.0000      LOAD CASE=   0                                         
 
    NODE      VOLT  
    1834   103.69    
    1835   103.70    
    1836   104.43    
    1837   111.62    
    1838  -103.29    
    1839  -105.97    
    1840  -99.008    
    1841  -104.11    
    1842   75.735    
    1843  -62.735    
    1844  0.77092    
    1845   64.321    
    1846   18.577    
    1847  -18.304    
    1848  -55.096    
    1849   139.48    
    1850   137.27    
    1851   138.66    
    1852   141.18    
    1853  -139.28    
    1854  -141.56    
    1855  -138.18    
    1856  -126.79    
    1857   112.49    
    1858  -95.377    
    1859  -139.54    
    1860  -103.17    
    1861  -44.249    
    1862  -11.362    
    1863   11.225    
    1864   44.826    
    1865   103.14    
    1866   139.75    
    1867   105.27    
    1868   83.592    
    1869   61.462    
    1870   39.369    
    1871   17.442    
    1872   6.6850    
1

 ***** ANSYS - ENGINEERING ANALYSIS SYSTEM  RELEASE 15.0      *****
 ANSYS Academic Research                           
 00203145          VERSION=LINUX x64     17:53:11  SEP 22, 2014 CP=     11.414

                                                                               

 
  ***** POST1 NODAL DEGREE OF FREEDOM LISTING *****                            
 
  LOAD STEP=     1  SUBSTEP=     1                                             
   TIME=    1.0000      LOAD CASE=   0                                         
 
    NODE      VOLT  
    1873  -7.5693    
    1874  -18.421    
    1875  -37.400    
    1876  -58.960    
    1877  -77.245    
    1878  -98.609    
    1879   170.85    
    1880   171.09    
    1881   167.58    
    1882   167.99    
    1883   168.39    
    1884   168.70    
    1885   169.39    
    1886   169.06    
    1887   171.87    
    1888  -170.97    
    1889  -170.72    
    1890  -167.89    
    1891  -167.47    
    1892  -173.27    
    1893  -173.05    
    1894  -164.05    
    1895  -164.37    
    1896  -161.34    
    1897   132.86    
    1898   153.87    
    1899  -125.21    
    1900  -145.23    
    1901   169.44    
    1902   165.35    
    1903  -153.57    
    1904  -158.53    
    1905  -119.66    
    1906   139.05    
    1907  -129.35    
    1908  -146.76    
    1909  -136.24    
    1910  -142.32    
    1911   138.95    
1

 ***** ANSYS - ENGINEERING ANALYSIS SYSTEM  RELEASE 15.0      *****
 ANSYS Academic Research                           
 00203145          VERSION=LINUX x64     17:53:11  SEP 22, 2014 CP=     11.415

                                                                               

 
  ***** POST1 NODAL DEGREE OF FREEDOM LISTING *****                            
 
  LOAD STEP=     1  SUBSTEP=     1                                             
   TIME=    1.0000      LOAD CASE=   0                                         
 
    NODE      VOLT  
    1912   137.79    
    1913   136.51    
    1914   142.59    
    1915  -73.098    
    1916  -38.938    
    1917 -0.87883    
    1918   42.750    
    1919   88.072    
    1920   23.459    
    1921  -21.959    
    1922  -49.339    
    1923   60.900    
    1924  -63.264    
    1925  -71.790    
    1926   84.806    
    1927   66.262    
    1928   72.243    
    1929   72.602    
    1930  -6.8867    
    1931   4.5682    
    1932  -62.009    
    1933   12.587    
    1934  -3.8605    
    1935   21.480    
    1936   155.41    
    1937   180.43    
    1938   155.93    
    1939   178.72    
    1940   154.32    
    1941   154.25    
    1942   177.60    
    1943   176.92    
    1944   165.13    
    1945   166.08    
    1946   165.87    
    1947   169.03    
    1948   168.34    
    1949   165.93    
    1950   167.25    
1

 ***** ANSYS - ENGINEERING ANALYSIS SYSTEM  RELEASE 15.0      *****
 ANSYS Academic Research                           
 00203145          VERSION=LINUX x64     17:53:11  SEP 22, 2014 CP=     11.416

                                                                               

 
  ***** POST1 NODAL DEGREE OF FREEDOM LISTING *****                            
 
  LOAD STEP=     1  SUBSTEP=     1                                             
   TIME=    1.0000      LOAD CASE=   0                                         
 
    NODE      VOLT  
    1951   169.93    
    1952   167.62    
    1953   165.86    
    1954   167.24    
    1955   163.83    
    1956   166.93    
    1957   164.33    
    1958   165.30    
    1959   163.20    
    1960   162.69    
    1961   165.03    
    1962   200.00    
    1963   200.00    
    1964   200.00    
    1965   200.00    
    1966   200.00    
    1967   200.00    
    1968   200.00    
    1969   200.00    
    1970   200.00    
    1971   200.00    
    1972   200.00    
    1973   200.00    
    1974   200.00    
    1975   200.00    
    1976   200.00    
    1977   200.00    
    1978   200.00    
    1979   200.00    
    1980   200.00    
    1981   200.00    
    1982   200.00    
    1983   200.00    
    1984   200.00    
    1985   200.00    
    1986   200.00    
    1987   200.00    
    1988   200.00    
    1989   200.00    
1

 ***** ANSYS - ENGINEERING ANALYSIS SYSTEM  RELEASE 15.0      *****
 ANSYS Academic Research                           
 00203145          VERSION=LINUX x64     17:53:11  SEP 22, 2014 CP=     11.417

                                                                               

 
  ***** POST1 NODAL DEGREE OF FREEDOM LISTING *****                            
 
  LOAD STEP=     1  SUBSTEP=     1                                             
   TIME=    1.0000      LOAD CASE=   0                                         
 
    NODE      VOLT  
    1990   200.00    
    1991   200.00    
    1992   200.00    
    1993   200.00    
    1994   200.00    
    1995   200.00    
    1996   200.00    
    1997   200.00    
    1998   200.00    
    1999   200.00    
    2000   200.00    
    2001   200.00    
    2002   200.00    
    2003   200.00    
    2004   200.00    
    2005   200.00    
    2006   200.00    
    2007   200.00    
    2008   200.00    
    2009   200.00    
    2010   200.00    
    2011   200.00    
    2012   200.00    
    2013   200.00    
    2014   200.00    
    2015   200.00    
    2016   200.00    
    2017   200.00    
    2018   200.00    
    2019   200.00    
    2020   200.00    
    2021   200.00    
    2022   200.00    
    2023   200.00    
    2024   200.00    
    2025   200.00    
    2026   200.00    
    2027   200.00    
    2028   200.00    
1

 ***** ANSYS - ENGINEERING ANALYSIS SYSTEM  RELEASE 15.0      *****
 ANSYS Academic Research                           
 00203145          VERSION=LINUX x64     17:53:11  SEP 22, 2014 CP=     11.418

                                                                               

 
  ***** POST1 NODAL DEGREE OF FREEDOM LISTING *****                            
 
  LOAD STEP=     1  SUBSTEP=     1                                             
   TIME=    1.0000      LOAD CASE=   0                                         
 
    NODE      VOLT  
    2029   200.00    
    2030   200.00    
    2031   200.00    
    2032   200.00    
    2033   200.00    
    2034   200.00    
    2035   200.00    
    2036   200.00    
    2037   200.00    
    2038   200.00    
    2039   200.00    
    2040   200.00    
    2041   200.00    
    2042   200.00    
    2043   200.00    
    2044   200.00    
    2045   200.00    
    2046   200.00    
    2047   200.00    
    2048   200.00    
    2049   200.00    
    2050   200.00    
    2051   200.00    
    2052   200.00    
    2053   200.00    
    2054   200.00    
    2055   200.00    
    2056   200.00    
    2057   200.00    
    2058   200.00    
    2059   200.00    
    2060   200.00    
    2061   200.00    
    2062   200.00    
    2063   200.00    
    2064   200.00    
    2065   200.00    
    2066   200.00    
    2067   200.00    
1

 ***** ANSYS - ENGINEERING ANALYSIS SYSTEM  RELEASE 15.0      *****
 ANSYS Academic Research                           
 00203145          VERSION=LINUX x64     17:53:11  SEP 22, 2014 CP=     11.419

                                                                               

 
  ***** POST1 NODAL DEGREE OF FREEDOM LISTING *****                            
 
  LOAD STEP=     1  SUBSTEP=     1                                             
   TIME=    1.0000      LOAD CASE=   0                                         
 
    NODE      VOLT  
    2068   200.00    
    2069   200.00    
    2070   200.00    
    2071   200.00    
    2072   200.00    
    2073   200.00    
    2074   200.00    
    2075   200.00    
    2076   200.00    
    2077   200.00    
    2078   200.00    
    2079   200.00    
    2080   200.00    
    2081   200.00    
    2082   200.00    
    2083   200.00    
    2084   200.00    
    2085   200.00    
    2086   200.00    
    2087   200.00    
    2088   200.00    
    2089   200.00    
    2090   200.00    
    2091   200.00    
    2092   200.00    
    2093   200.00    
    2094   200.00    
    2095   200.00    
    2096   200.00    
    2097   200.00    
    2098   200.00    
    2099   200.00    
    2100   200.00    
    2101   155.39    
    2102   179.99    
    2103   155.78    
    2104   178.60    
    2105   154.32    
    2106   154.30    
1

 ***** ANSYS - ENGINEERING ANALYSIS SYSTEM  RELEASE 15.0      *****
 ANSYS Academic Research                           
 00203145          VERSION=LINUX x64     17:53:11  SEP 22, 2014 CP=     11.420

                                                                               

 
  ***** POST1 NODAL DEGREE OF FREEDOM LISTING *****                            
 
  LOAD STEP=     1  SUBSTEP=     1                                             
   TIME=    1.0000      LOAD CASE=   0                                         
 
    NODE      VOLT  
    2107   177.58    
    2108   176.87    
    2109   166.84    
    2110   166.16    
    2111   165.87    
    2112   168.20    
    2113   164.52    
    2114   168.13    
    2115   167.88    
    2116   164.27    
    2117   169.14    
    2118   166.73    
    2119   166.72    
    2120   165.62    
    2121   168.15    
    2122   166.57    
    2123   164.98    
    2124   164.60    
    2125   162.68    
    2126   164.76    
    2127  -154.75    
    2128  -177.82    
    2129  -155.08    
    2130  -178.71    
    2131  -156.09    
    2132  -157.24    
    2133  -180.95    
    2134  -179.62    
    2135  -165.17    
    2136  -167.53    
    2137  -170.41    
    2138  -169.09    
    2139  -169.33    
    2140  -166.09    
    2141  -166.12    
    2142  -170.00    
    2143  -168.40    
    2144  -169.31    
    2145  -166.34    
1

 ***** ANSYS - ENGINEERING ANALYSIS SYSTEM  RELEASE 15.0      *****
 ANSYS Academic Research                           
 00203145          VERSION=LINUX x64     17:53:11  SEP 22, 2014 CP=     11.421

                                                                               

 
  ***** POST1 NODAL DEGREE OF FREEDOM LISTING *****                            
 
  LOAD STEP=     1  SUBSTEP=     1                                             
   TIME=    1.0000      LOAD CASE=   0                                         
 
    NODE      VOLT  
    2146  -167.77    
    2147  -164.31    
    2148  -167.37    
    2149  -165.24    
    2150  -165.95    
    2151  -166.00    
    2152  -163.49    
    2153   165.82    
    2154   162.01    
    2155   114.13    
    2156   125.34    
    2157  -66.169    
    2158  -114.75    
    2159  -36.633    
    2160  -127.19    
    2161   142.12    
    2162   146.44    
    2163   144.36    
    2164   129.67    
    2165   87.091    
    2166   81.468    
    2167   91.591    
    2168  -70.124    
    2169  -82.988    
    2170  -121.39    
    2171  -124.84    
    2172  -68.382    
    2173  -90.714    
    2174  -109.66    
    2175  -126.62    
    2176  -142.82    
    2177  -131.91    
    2178  -96.729    
    2179  -157.75    
    2180   67.786    
    2181   96.523    
    2182   24.697    
    2183   15.899    
    2184   43.203    
1

 ***** ANSYS - ENGINEERING ANALYSIS SYSTEM  RELEASE 15.0      *****
 ANSYS Academic Research                           
 00203145          VERSION=LINUX x64     17:53:11  SEP 22, 2014 CP=     11.422

                                                                               

 
  ***** POST1 NODAL DEGREE OF FREEDOM LISTING *****                            
 
  LOAD STEP=     1  SUBSTEP=     1                                             
   TIME=    1.0000      LOAD CASE=   0                                         
 
    NODE      VOLT  
    2185   109.77    
    2186   53.728    
    2187  -93.507    
    2188  -95.585    
    2189  -144.61    
    2190  -45.025    
    2191  -74.883    
    2192  -86.046    
    2193  -100.15    
    2194  -87.412    
    2195  -122.48    
    2196  -116.78    
    2197  -45.317    
    2198  -95.695    
    2199  -63.622    
    2200  -145.00    
    2201  -72.019    
    2202   109.04    
    2203   60.029    
    2204   25.389    
    2205   55.920    
    2206   98.087    
    2207   55.626    
[...]
    7492   2.6055    
    7493   2.6076    
    7494   169.94    
    7495   177.06    
    7496   151.11    
    7497   179.00    
    7498   129.72    
    7499   135.33    
    7500   122.96    
    7501   134.77    
    7502   148.74    
    7503   150.60    
    7504   181.82    
    7505   186.54    
    7506   193.48    
    7507   194.16    
    7508   188.93    
    7509   193.13    
    7510   178.93    
    7511   195.46    
    7512   194.63    
    7513   190.75    
    7514   195.39    
    7515   193.98    
    7516   192.49    
    7517   193.67    
    7518   190.98    
    7519   184.75    
    7520   194.37    
    7521   193.76    
    7522   195.64    
    7523   194.03    
    7524  -43.839    
    7525  -44.285    
    7526   5.9643    
    7527  -70.657    
1

 ***** ANSYS - ENGINEERING ANALYSIS SYSTEM  RELEASE 15.0      *****
 ANSYS Academic Research                           
 00203145          VERSION=LINUX x64     17:53:12  SEP 22, 2014 CP=     11.558

                                                                               

 
  ***** POST1 NODAL DEGREE OF FREEDOM LISTING *****                            
 
  LOAD STEP=     1  SUBSTEP=     1                                             
   TIME=    1.0000      LOAD CASE=   0                                         
 
    NODE      VOLT  
    7528  -57.332    
    7529  -51.990    
    7530  -61.549    
    7531  -78.778    
    7532  -85.011    
    7533  -71.197    
    7534  -89.064    
    7535  -99.261    
    7536  -127.57    
    7537  -107.57    
    7538  -107.82    
    7539  -127.10    
    7540  -97.136    
    7541  -89.615    
    7542   9.1473    
    7543   30.093    
    7544   104.50    
    7545   133.30    
    7546   104.92    
    7547   106.63    
    7548   33.108    
    7549   124.30    
    7550   40.313    
    7551   14.378    
    7552   135.21    
    7553   145.28    
    7554   132.73    
    7555   117.65    
    7556  -138.92    
    7557  -143.02    
    7558  -151.74    
    7559  -153.28    
    7560  -126.86    
    7561  -143.12    
    7562  -145.54    
    7563  -121.89    
    7564  -103.97    
    7565  -116.25    
    7566  -147.70    
1

 ***** ANSYS - ENGINEERING ANALYSIS SYSTEM  RELEASE 15.0      *****
 ANSYS Academic Research                           
 00203145          VERSION=LINUX x64     17:53:12  SEP 22, 2014 CP=     11.559

                                                                               

 
  ***** POST1 NODAL DEGREE OF FREEDOM LISTING *****                            
 
  LOAD STEP=     1  SUBSTEP=     1                                             
   TIME=    1.0000      LOAD CASE=   0                                         
 
    NODE      VOLT  
    7567  -113.99    
    7568  -144.91    
    7569  -133.29    
    7570  -131.54    
    7571  -143.90    
    7572  -177.27    
    7573  -172.91    
    7574  -177.86    
    7575  -136.04    
    7576  -151.51    
    7577  -137.97    
    7578  -161.68    
    7579  -149.42    
    7580  -193.54    
    7581  -192.26    
    7582  -190.64    
    7583  -186.83    
    7584   181.92    
    7585   191.59    
    7586   182.44    
    7587   174.26    
    7588   179.71    
    7589   182.96    
    7590   182.49    
    7591   168.68    
    7592   188.46    
    7593   190.63    
    7594   192.52    
    7595   194.07    
    7596   177.97    
    7597   180.53    
    7598   177.40    
    7599   143.14    
    7600   131.24    
    7601  -145.33    
    7602  -159.78    
    7603  -96.719    
    7604  -124.82    
    7605  -111.97    
1

 ***** ANSYS - ENGINEERING ANALYSIS SYSTEM  RELEASE 15.0      *****
 ANSYS Academic Research                           
 00203145          VERSION=LINUX x64     17:53:12  SEP 22, 2014 CP=     11.560

                                                                               

 
  ***** POST1 NODAL DEGREE OF FREEDOM LISTING *****                            
 
  LOAD STEP=     1  SUBSTEP=     1                                             
   TIME=    1.0000      LOAD CASE=   0                                         
 
    NODE      VOLT  
    7606  -128.83    
    7607   182.33    
    7608   191.29    
    7609   178.89    
    7610   172.79    
    7611   165.08    
    7612   158.12    
    7613  -30.339    
    7614  -23.672    
    7615  -7.9524    
    7616  -9.0477    
    7617  -45.167    
    7618  -56.494    
    7619  -135.85    
    7620  -136.89    
    7621  -132.53    
    7622  -117.04    
    7623  -153.76    
    7624  -125.89    
    7625  -129.85    
    7626   141.63    
    7627   175.85    
    7628   161.19    
    7629   166.93    
    7630   157.24    
    7631   183.10    
    7632   183.41    
    7633   166.72    
    7634   192.48    
    7635   193.73    
    7636   191.89    
    7637   194.19    
    7638   191.87    
    7639   180.69    
    7640   177.36    
    7641   182.57    
    7642   180.45    
    7643   155.78    
    7644   166.71    
1

 ***** ANSYS - ENGINEERING ANALYSIS SYSTEM  RELEASE 15.0      *****
 ANSYS Academic Research                           
 00203145          VERSION=LINUX x64     17:53:12  SEP 22, 2014 CP=     11.561

                                                                               

 
  ***** POST1 NODAL DEGREE OF FREEDOM LISTING *****                            
 
  LOAD STEP=     1  SUBSTEP=     1                                             
   TIME=    1.0000      LOAD CASE=   0                                         
 
    NODE      VOLT  
    7645   192.00    
    7646   184.22    
    7647   180.34    
    7648   193.98    
    7649  -182.29    
    7650  -180.26    
    7651  -183.10    
    7652  -168.22    
    7653  -174.30    
    7654  -187.43    
    7655  -183.89    
    7656  -181.10    
    7657  -177.19    
    7658  -174.47    
    7659  -192.43    
    7660  -168.75    
    7661  -166.71    
    7662  -186.13    
    7663  -192.11    
    7664  -82.839    
    7665  -119.70    
    7666  -187.35    
    7667  -134.36    
    7668   190.08    
    7669  -183.98    
    7670  -187.68    
    7671  -192.19    
    7672  -173.63    
    7673  -179.35    
    7674  -176.60    
    7675  -140.71    
    7676  -162.88    
    7677  -147.80    
    7678   172.93    
    7679   178.77    
    7680  -155.48    
    7681  -165.77    
    7682  -193.54    
    7683  -194.46    
1

 ***** ANSYS - ENGINEERING ANALYSIS SYSTEM  RELEASE 15.0      *****
 ANSYS Academic Research                           
 00203145          VERSION=LINUX x64     17:53:12  SEP 22, 2014 CP=     11.562

                                                                               

 
  ***** POST1 NODAL DEGREE OF FREEDOM LISTING *****                            
 
  LOAD STEP=     1  SUBSTEP=     1                                             
   TIME=    1.0000      LOAD CASE=   0                                         
 
    NODE      VOLT  
    7684   105.40    
    7685   177.02    
    7686   178.99    
    7687   178.35    
    7688  -166.20    
    7689  -173.51    
    7690  -159.24    
    7691   140.51    
    7692   178.09    
    7693   132.92    
    7694   116.81    
    7695   178.78    
    7696   178.60    
    7697   187.25    
    7698   193.98    
    7699   191.73    
    7700   170.74    
    7701  -127.50    
    7702  -30.363    
    7703  -34.186    
    7704  -102.35    
    7705   180.72    
    7706   190.25    
    7707  -157.52    
    7708  -176.83    
    7709  -180.47    
    7710  -179.49    
    7711  -164.79    
    7712  -178.75    
    7713  -178.25    
    7714  -181.35    
    7715  -186.47    
    7716   84.154    
    7717   190.09    
    7718   140.80    
    7719   159.34    
    7720  -192.31    
    7721  -190.81    
    7722  -173.20    
1

 ***** ANSYS - ENGINEERING ANALYSIS SYSTEM  RELEASE 15.0      *****
 ANSYS Academic Research                           
 00203145          VERSION=LINUX x64     17:53:12  SEP 22, 2014 CP=     11.563

                                                                               

 
  ***** POST1 NODAL DEGREE OF FREEDOM LISTING *****                            
 
  LOAD STEP=     1  SUBSTEP=     1                                             
   TIME=    1.0000      LOAD CASE=   0                                         
 
    NODE      VOLT  
    7723  -191.37    
    7724  -169.71    
    7725  -177.32    
    7726  -171.51    
    7727  -178.81    
    7728  -193.25    
    7729  -192.00    
    7730  -194.62    
    7731  -188.14    
    7732  -4.7176    
    7733  -5.7822    
    7734  -25.639    
    7735  -88.549    
    7736  -60.704    
    7737  -142.30    
    7738  -141.56    
    7739  -163.78    
    7740  -81.647    
    7741   191.47    
    7742   164.62    
    7743   179.00    
    7744   167.86    
    7745   178.66    
    7746  -177.75    
    7747  -143.42    
    7748  -164.86    
    7749  -178.41    
    7750  -193.91    
    7751  -194.26    
    7752  -193.07    
    7753  -188.50    
    7754  -193.79    
    7755  -172.97    
    7756  -178.07    
    7757  -156.39    
    7758   22.394    
    7759   5.3358    
    7760   62.149    
    7761   186.75    
1

 ***** ANSYS - ENGINEERING ANALYSIS SYSTEM  RELEASE 15.0      *****
 ANSYS Academic Research                           
 00203145          VERSION=LINUX x64     17:53:12  SEP 22, 2014 CP=     11.564

                                                                               

 
  ***** POST1 NODAL DEGREE OF FREEDOM LISTING *****                            
 
  LOAD STEP=     1  SUBSTEP=     1                                             
   TIME=    1.0000      LOAD CASE=   0                                         
 
    NODE      VOLT  
    7762   190.13    
    7763   186.15    
    7764   193.81    
    7765  -184.90    
    7766  -184.02    
    7767  -187.73    
    7768   179.33    
    7769  -167.86    
    7770  -184.60    
    7771   288.24    
    7772   298.15    
    7773   298.34    
    7774   296.49    
    7775   296.82    
    7776   298.68    
    7777   297.02    
    7778   17.646    
    7779  -213.23    
    7780  -217.48    
    7781  -206.99    
    7782  -208.98    
    7783   169.58    
    7784   184.45    
    7785   186.35    
    7786   294.84    
    7787   294.49    
    7788   296.83    
    7789  -277.00    
    7790  -272.75    
    7791  -268.50    
    7792   191.18    
    7793   132.86    
    7794   112.13    
    7795   132.19    
    7796   147.45    
    7797   160.97    
    7798  -225.99    
    7799  -230.24    
    7800  -221.73    
1

 ***** ANSYS - ENGINEERING ANALYSIS SYSTEM  RELEASE 15.0      *****
 ANSYS Academic Research                           
 00203145          VERSION=LINUX x64     17:53:12  SEP 22, 2014 CP=     11.566

                                                                               

 
  ***** POST1 NODAL DEGREE OF FREEDOM LISTING *****                            
 
  LOAD STEP=     1  SUBSTEP=     1                                             
   TIME=    1.0000      LOAD CASE=   0                                         
 
    NODE      VOLT  
    7801  -5.6997    
    7802   191.98    
    7803   193.16    
    7804   186.77    
    7805   180.15    
    7806   166.41    
    7807   184.22    
    7808   182.16    
    7809   187.73    
    7810  -144.68    
    7811  -156.30    
    7812  -148.99    
    7813  -193.48    
    7814  -177.90    
    7815  -179.38    
    7816  -178.29    
    7817  -260.00    
    7818  -264.25    
    7819   198.37    
    7820   292.50    
    7821   298.68    
    7822  -191.51    
    7823   191.02    
    7824  -288.26    
    7825  -285.19    
    7826  -281.25    
    7827   206.83    
    7828   211.09    
    7829  -184.34    
    7830  -167.95    
    7831  -181.72    
    7832  -187.90    
    7833   8.3578    
    7834   178.74    
    7835  -145.18    
    7836  -102.61    
    7837  -255.74    
    7838  -251.49    
    7839   195.73    
1

 ***** ANSYS - ENGINEERING ANALYSIS SYSTEM  RELEASE 15.0      *****
 ANSYS Academic Research                           
 00203145          VERSION=LINUX x64     17:53:12  SEP 22, 2014 CP=     11.567

                                                                               

 
  ***** POST1 NODAL DEGREE OF FREEDOM LISTING *****                            
 
  LOAD STEP=     1  SUBSTEP=     1                                             
   TIME=    1.0000      LOAD CASE=   0                                         
 
    NODE      VOLT  
    7840  -176.96    
    7841  -179.11    
    7842  -179.75    
    7843   276.94    
    7844   272.68    
    7845   215.35    
    7846  -191.31    
    7847  -193.73    
    7848  -187.09    
    7849   186.67    
    7850   193.73    
    7851   194.32    
    7852  -298.15    
    7853  -298.35    
    7854  -298.68    
    7855  -297.02    
    7856  -298.16    
    7857   21.012    
    7858   12.482    
    7859   105.64    
    7860   89.139    
    7861   120.06    
    7862   192.76    
    7863  -179.24    
    7864  -190.85    
    7865   79.979    
    7866  -143.70    
    7867   268.42    
    7868  -296.51    
    7869   50.981    
    7870   217.33    
    7871   168.37    
    7872   178.67    
    7873   187.74    
    7874   182.36    
    7875   190.64    
    7876  -97.784    
    7877  -131.66    
    7878  -292.51    
1

 ***** ANSYS - ENGINEERING ANALYSIS SYSTEM  RELEASE 15.0      *****
 ANSYS Academic Research                           
 00203145          VERSION=LINUX x64     17:53:12  SEP 22, 2014 CP=     11.568

                                                                               

 
  ***** POST1 NODAL DEGREE OF FREEDOM LISTING *****                            
 
  LOAD STEP=     1  SUBSTEP=     1                                             
   TIME=    1.0000      LOAD CASE=   0                                         
 
    NODE      VOLT  
    7879  -294.85    
    7880  -296.84    
    7881   16.597    
    7882   20.724    
    7883   141.82    
    7884   159.19    
    7885   166.72    
    7886   177.32    
    7887   178.59    
    7888  -14.246    
    7889   193.25    
    7890   187.40    
    7891   190.15    
    7892   192.00    
    7893   190.34    
    7894   178.58    
    7895  -183.81    
    7896  -178.65    
    7897  -181.79    
    7898  -191.95    
    7899  -191.78    
    7900   195.82    
    7901  -193.50    
    7902  -234.49    
    7903   259.91    
    7904   264.17    
    7905  -198.53    
    7906  -194.60    
    7907  -171.17    
    7908  -187.56    
    7909  -194.58    
    7910   191.30    
    7911   251.39    
    7912   255.65    
    7913   193.56    
    7914   195.43    
    7915   195.76    
    7916  -247.24    
    7917  -242.99    
1

 ***** ANSYS - ENGINEERING ANALYSIS SYSTEM  RELEASE 15.0      *****
 ANSYS Academic Research                           
 00203145          VERSION=LINUX x64     17:53:12  SEP 22, 2014 CP=     11.569

                                                                               

 
  ***** POST1 NODAL DEGREE OF FREEDOM LISTING *****                            
 
  LOAD STEP=     1  SUBSTEP=     1                                             
   TIME=    1.0000      LOAD CASE=   0                                         
 
    NODE      VOLT  
    7918   297.02    
    7919   296.50    
    7920   298.34    
    7921   298.16    
    7922  -87.244    
    7923   192.83    
    7924  -181.94    
    7925  -21.469    
    7926   13.070    
    7927   12.049    
    7928  -26.181    
    7929  -18.244    
    7930  -30.876    
    7931   188.08    
    7932   161.14    
    7933   185.38    
    7934  -179.36    
    7935  -178.41    
    7936  -177.22    
    7937  -122.90    
    7938   145.31    
    7939   178.91    
    7940   193.09    
    7941   177.81    
    7942  -185.99    
    7943  -186.21    
    7944  -171.82    
    7945  -188.51    
    7946  -178.83    
    7947  -178.22    
    7948  -193.20    
    7949  -191.31    
    7950  -192.89    
    7951  -191.66    
    7952  -187.78    
    7953  -184.59    
    7954  -182.35    
    7955  -166.89    
    7956  -180.49    
1

 ***** ANSYS - ENGINEERING ANALYSIS SYSTEM  RELEASE 15.0      *****
 ANSYS Academic Research                           
 00203145          VERSION=LINUX x64     17:53:12  SEP 22, 2014 CP=     11.570

                                                                               

 
  ***** POST1 NODAL DEGREE OF FREEDOM LISTING *****                            
 
  LOAD STEP=     1  SUBSTEP=     1                                             
   TIME=    1.0000      LOAD CASE=   0                                         
 
    NODE      VOLT  
    7957  -180.01    
    7958  -185.74    
    7959  -185.84    
    7960  -162.44    
    7961  -143.23    
    7962  -188.44    
    7963   187.74    
    7964  -194.56    
    7965   191.98    
    7966   191.71    
    7967  -296.50    
    7968   179.48    
    7969  -202.76    
    7970  -190.67    
    7971   242.88    
    7972   247.13    
    7973  -40.547    
    7974  -21.103    
    7975  -28.420    
    7976  -60.967    
    7977  -181.85    
    7978   225.84    
    7979   221.59    
    7980  -238.74    
    7981  -177.76    
    7982  -177.56    
    7983  -179.79    
    7984  -179.30    
    7985  -132.48    
    7986  -156.68    
    7987  -177.99    
    7988  -112.78    
    7989   98.101    
    7990   182.11    
    7991   184.24    
    7992   194.78    
    7993   194.33    
    7994   177.23    
    7995   179.02    
1

 ***** ANSYS - ENGINEERING ANALYSIS SYSTEM  RELEASE 15.0      *****
 ANSYS Academic Research                           
 00203145          VERSION=LINUX x64     17:53:12  SEP 22, 2014 CP=     11.571

                                                                               

 
  ***** POST1 NODAL DEGREE OF FREEDOM LISTING *****                            
 
  LOAD STEP=     1  SUBSTEP=     1                                             
   TIME=    1.0000      LOAD CASE=   0                                         
 
    NODE      VOLT  
    7996   192.25    
    7997   284.86    
    7998  -28.550    
    7999  -194.77    
    8000   181.51    
    8001  -298.68    
    8002  -298.35    
    8003  -297.02    
    8004  -296.83    
    8005  -298.16    
    8006  -187.93    
    8007   167.65    
    8008  -294.50    
    8009  -292.51    
    8010  -288.26    
    8011   238.62    
    8012   234.36    
    8013   10.432    
    8014  -294.85    
    8015   178.53    
    8016  -179.81    
    8017  -163.00    
    8018   177.68    
    8019   95.193    
    8020  -14.495    
    8021   177.55    
    8022  -11.183    
    8023  -193.11    
    8024  -9.7819    
    8025   189.98    
    8026   185.95    
    8027  -190.43    
    8028  -190.23    
    8029  -192.00    
    8030  -192.59    
    8031  -176.92    
    8032  -177.62    
    8033   230.10    
    8034  -179.37    
1

 ***** ANSYS - ENGINEERING ANALYSIS SYSTEM  RELEASE 15.0      *****
 ANSYS Academic Research                           
 00203145          VERSION=LINUX x64     17:53:12  SEP 22, 2014 CP=     11.573

                                                                               

 
  ***** POST1 NODAL DEGREE OF FREEDOM LISTING *****                            
 
  LOAD STEP=     1  SUBSTEP=     1                                             
   TIME=    1.0000      LOAD CASE=   0                                         
 
    NODE      VOLT  
    8035  -32.114    
    8036   298.16    
    8037   294.84    
    8038   202.60    
    8039   161.84    
    8040   176.88    
    8041   193.80    
    8042   76.005    
    8043   111.72    
    8044   8.5397    
    8045   3.9040    
    8046   44.967    

 MAXIMUM ABSOLUTE VALUES
 NODE         25
 VALUE   -300.00    
