
 LIST ALL SELECTED ELEMENTS.  (LIST NODES)
1

 ***** ANSYS - ENGINEERING ANALYSIS SYSTEM  RELEASE 15.0      *****
 ANSYS Academic Research                           
 00203145          VERSION=LINUX x64     10:48:11  OCT 01, 2014 CP=      4.732

                                                                               

 
    ELEM MAT TYP REL ESY SEC        NODES
 
       1   3   1   1   0   1   2153  2154  2155  2156  2413  2414  2415  2416
                               2417  2418
       2   3   1   1   0   1   2153  2154  2156  2081  2413  2417  2416  2419
                               2420  2421
       3   3   1   1   0   1   2153  2082  2155  2154  2422  2423  2415  2413
                               2424  2414
       4   3   1   1   0   1   2153  2082  2154  2081  2422  2424  2413  2419
                               2009  2420
       5   3   1   1   0   1   1912   782  2082  2153  1884  2059  2425  2426
                               2427  2422
       6   3   1   1   0   1   2157  2158  2159  2160  2428  2429  2430  2431
                               2432  2433
       7   3   1   1   0   1   2161  2162  2087  2091  2434  2435  2436  2437
                               2438  1984
       8   3   1   1   0   1   2161  2087  2163  2092  2436  2439  2440  2441
                               1985  2442
       9   3   1   1   0   1   2161  2164  2165  2166  2443  2444  2445  2446
                               2447  2448
      10   3   1   1   0   1   2161  2165  2163  2167  2445  2449  2440  2450
                               2451  2452
      11   3   1   1   0   1   2168  2159  2160  2169  2453  2433  2454  2455
                               2456  2457
      12   3   1   1   0   1   2170  2171  2172  2173  2458  2459  2460  2461
                               2462  2463
      13   3   1   1   0   1   2170   703  2174   701  2464  2465  2466  2467
                                702  2468
      14   3   1   1   0   1   2170  2175  2172  2171  2469  2470  2460  2458
                               2471  2459
      15   3   1   1   0   1   2170  2174  2176   701  2466  2472  2473  2467
                               2468  2474
      16   3   1   1   0   1   2177  2178  2179  1438  2475  2476  2477  2478
                               2479  2480
      17   3   1   1   0   1   2178  1438  2177  2175  2479  2478  2475  2481
                               2482  2483
      18   3   1   1   0   1   2180  1140  2181   649  2484  2485  2486  2487
                               1104  2488
      19   3   1   1   0   1   2180  1033  2182  2183  2489  2490  2491  2492
                               2493  2494
      20   3   1   1   0   1   2180  2181  1033   649  2486  2495  2489  2487
                               2488   995
      21   3   1   1   0   1   2180  2184  1144  1147  2496  2497  2498  2499
                               2500  1068
      22   3   1   1   0   1   2180  1140  2185  2181  2484  2501  2502  2486
                               2485  2503
      23   3   1   1   0   1   2180  2186  2182  2181  2504  2505  2491  2486
                               2506  2507
      24   3   1   1   0   1   2180  2182  2184  2183  2491  2508  2496  2492
                               2494  2509
      25   3   1   1   0   1   2187  2188  2189  2190  2510  2511  2512  2513
                               2514  2515
1

 ***** ANSYS - ENGINEERING ANALYSIS SYSTEM  RELEASE 15.0      *****
 ANSYS Academic Research                           
 00203145          VERSION=LINUX x64     10:48:11  OCT 01, 2014 CP=      4.733

                                                                               

 
    ELEM MAT TYP REL ESY SEC        NODES
 
      26   3   1   1   0   1   2187  2191  2192  2193  2516  2517  2518  2519
                               2520  2521
      27   3   1   1   0   1   2187  2194  2195  2192  2522  2523  2524  2518
                               2525  2526
      28   3   1   1   0   1   2196  2197  2198  2175  2527  2528  2529  2530
                               2531  2532
      29   3   1   1   0   1   2197  2199  2175  2196  2533  2534  2531  2527
                               2535  2530
      30   3   1   1   0   1   2199  2200  2171  2175  2536  2537  2538  2534
                               2539  2471
      31   3   1   1   0   1   2173  2172  2201  2171  2463  2540  2541  2462
                               2459  2542
      32   3   1   1   0   1   2172  2201  2171  2199  2540  2542  2459  2543
                               2544  2538
      33   3   1   1   0   1   2202  2203  2204  2205  2545  2546  2547  2548
                               2549  2550
      34   3   1   1   0   1   2206  2202  2207  2208  2551  2552  2553  2554
                               2555  2556
      35   3   1   1   0   1   2202  2209  2208  2206  2557  2558  2555  2551
                               2559  2554
      36   3   1   1   0   1   2202  2208  2209  2097  2555  2558  2557  2560
                               2561  2562
      37   3   1   1   0   1   2202  2097  2210  2211  2560  2563  2564  2565
                               2566  2567
      38   3   1   1   0   1   2205  1300  2210  2202  2568  2569  2570  2548
                               2571  2564
      39   3   1   1   0   1   1960  1663   606   476  2572  2573  1942  1940
                               2574  1945
      40   3   1   1   0   1   2179  2212  1449  1440  2575  2576  2577  2578
                               2579  1333
      41   3   1   1   0   1   2178  2169  2177  2179  2580  2581  2475  2476
                               2582  2477
      42   3   1   1   0   1   2179  2212  2176  2178  2575  2583  2584  2476
                               2585  2586
      43   3   1   1   0   1   2213   760  2214  2215  2587  2588  2589  2590
                               2591  2592
      44   3   1   1   0   1   2179  1449  2216  1442  2577  2593  2594  2595
                               1331  2596
      45   3   1   1   0   1   2179  2177  1438  1442  2477  2478  2480  2595
                               2597  1334
      46   3   1   1   0   1   2217  2218  2219   948  2598  2599  2600  2601
                               2602  2603
      47   3   1   1   0   1   2179  2169  2177  2216  2582  2581  2477  2594
                               2604  2605
      48   3   1   1   0   1   2220  2214  2221  2206  2606  2607  2608  2609
                               2610  2611
      49   3   1   1   0   1   2222  2215  2214  2206  2612  2592  2613  2614
                               2615  2610
      50   3   1   1   0   1   2221  2223  2214  2220  2616  2617  2607  2608
                               2618  2606
1

 ***** ANSYS - ENGINEERING ANALYSIS SYSTEM  RELEASE 15.0      *****
 ANSYS Academic Research                           
 00203145          VERSION=LINUX x64     10:48:11  OCT 01, 2014 CP=      4.734

                                                                               

 
    ELEM MAT TYP REL ESY SEC        NODES
 
      51   3   1   1   0   1   2161  2166  2224  2164  2446  2619  2620  2443
                               2447  2621
      52   3   1   1   0   1   2222  2225  2223  2213  2622  2623  2624  2625
                               2626  2627
      53   3   1   1   0   1   2226  2227  1287  1427  2628  2629  2630  2631
                               2632  2633
      54   3   1   1   0   1   1440  2212  1432  2228  2579  2634  1340  2635
                               2636  2637
      55   3   1   1   0   1    699  2176  1440  2229  2638  2639  1396  2640
                               2641  2642
      56   3   1   1   0   1   2204  2230  2231  2207  2643  2644  2645  2646
                               2647  2648
      57   3   1   1   0   1   2232  2216  2169  2212  2649  2604  2650  2651
                               2652  2653
      58   3   1   1   0   1   2170  1438   701  2176  2654  1401  2467  2473
                               2655  2474
      59   3   1   1   0   1   2179  1440  2176  2212  2578  2639  2584  2575
                               2579  2583
      60   3   1   1   0   1   2212  2233  2178  2169  2656  2657  2585  2653
                               2658  2580
      61   3   1   1   0   1   2169  2212  2179  2178  2653  2575  2582  2580
                               2585  2476
      62   3   1   1   0   1   2234  1034  2182  1037  2659  2660  2661  2662
                                976  2663
      63   3   1   1   0   1   2234  2186  2182  2235  2664  2505  2661  2665
                               2666  2667
      64   3   1   1   0   1   2234  1037  1914    97  2662  2668  2669  2670
                                978  1865
      65   3   1   1   0   1   2234  2236  2237  1929  2671  2672  2673  2674
                               2675  2676
      66   3   1   1   0   1   2234  2181  2238  1037  2677  2678  2679  2662
                               2680  2681
      67   3   1   1   0   1   2239  2240  2241  2242  2682  2683  2684  2685
                               2686  2687
      68   3   1   1   0   1   2242  2239  2240  2243  2685  2682  2686  2688
                               2689  2690
      69   3   1   1   0   1    480  2243   612  1774  2691  2692  1948  1724
                               2693  2694
      70   3   1   1   0   1   2243   480   478  1775  2691   479  2695  2696
                               1723  1722
      71   3   1   1   0   1   2243   612  2240   610  2692  2697  2690  2698
                                611  2699
      72   3   1   1   0   1   2243   612  1774  2240  2692  2694  2693  2690
                               2697  2700
      73   3   1   1   0   1   2244  2204  2245  2190  2701  2702  2703  2704
                               2705  2706
      74   3   1   1   0   1   2246  2247  2168  2248  2707  2708  2709  2710
                               2711  2712
      75   3   1   1   0   1   1027    11   948   773  1019   845  2713  1020
                                774   907
1

 ***** ANSYS - ENGINEERING ANALYSIS SYSTEM  RELEASE 15.0      *****
 ANSYS Academic Research                           
 00203145          VERSION=LINUX x64     10:48:11  OCT 01, 2014 CP=      4.734

                                                                               

 
    ELEM MAT TYP REL ESY SEC        NODES
 
      76   3   1   1   0   1   2249  2250  2251  2252  2714  2715  2716  2717
                               2718  2719
      77   3   1   1   0   1   2253  2254  2255  2256  2720  2721  2722  2723
                               2724  2725
      78   3   1   1   0   1   2257  1293  1309  1294  2726  1162  2727  2728
                               1223  1199
      79   3   1   1   0   1   2254  2245  2256  2253  2729  2730  2724  2720
                               2731  2723
      80   3   1   1   0   1   2258  2254  2245  2256  2732  2729  2733  2734
                               2724  2730
      81   3   1   1   0   1   2259  2260  1583  1586  2735  2736  2737  2738
                               2739  1544
      82   3   1   1   0   1   2259  1916   669  1915  2740  1876  2741  2742
                               1848  1877
      83   3   1   1   0   1   2158  2261  2262  1905  2743  2744  2745  2746
                               2747  2748
      84   3   1   1   0   1   2261  2262  1905  2259  2744  2748  2747  2749
                               2750  2751
      85   3   1   1   0   1   2259  2262  1905   671  2750  2748  2751  2752
                               2753  1899
      86   3   1   1   0   1   2225  2263  2264  2265  2754  2755  2756  2757
                               2758  2759
      87   3   1   1   0   1   2259  1915   669   671  2742  1877  2741  2752
                               1878   670
      88   3   1   1   0   1   2266  2267  2268  2269  2760  2761  2762  2763
                               2764  2765
      89   3   1   1   0   1   2173   947   958   944  2766   859  2767  2768
                                910   846
      90   3   1   1   0   1   2250  2267  2268  2266  2769  2761  2770  2771
                               2760  2762
      91   3   1   1   0   1   2270  2271  2272  2266  2772  2773  2774  2775
                               2776  2777
      92   3   1   1   0   1   2160  1443  1438  1442  2778  1337  2779  2780
                               1349  1334
      93   3   1   1   0   1   2266  2269  1766  2267  2763  2781  2782  2760
                               2764  2783
      94   3   1   1   0   1   1581  2266  2270  2273  2784  2775  2785  2786
                               2787  2788
      95   3   1   1   0   1   2274  2275  2276  2183  2789  2790  2791  2792
                               2793  2794
      96   3   1   1   0   1   2266  2269  1666  1766  2763  2795  2796  2782
                               2781  2797
      97   3   1   1   0   1   2266  1581  2271  1666  2784  2798  2776  2796
                               2799  2800
      98   3   1   1   0   1   2277  2278  1139  2279  2801  2802  2803  2804
                               2805  2806
      99   3   1   1   0   1   2277  2220  2280  2281  2807  2808  2809  2810
                               2811  2812
     100   3   1   1   0   1   2277  2220  2282  2280  2807  2813  2814  2809
                               2808  2815
1

 ***** ANSYS - ENGINEERING ANALYSIS SYSTEM  RELEASE 15.0      *****
 ANSYS Academic Research                           
 00203145          VERSION=LINUX x64     10:48:11  OCT 01, 2014 CP=      4.734

                                                                               

 
    ELEM MAT TYP REL ESY SEC        NODES
 
     101   3   1   1   0   1   2277  2282  1151  1146  2814  2816  2817  2818
                               2819  1055
     102   3   1   1   0   1   1151  1150  1152  2277  1056  1052  1054  2817
                               2820  2821
     103   3   1   1   0   1   2277  2283  1139  1150  2822  2823  2803  2820
                               2824  1070
     104   3   1   1   0   1   2266  2250  2252  2268  2771  2718  2825  2762
                               2770  2826
     105   3   1   1   0   1   2268  2250  2252  2253  2770  2718  2826  2827
                               2828  2829
     106   3   1   1   0   1   2266  2272  2270  2250  2777  2774  2775  2771
                               2830  2831
     107   3   1   1   0   1   2252  2268  2284  2269  2826  2832  2833  2834
                               2765  2835
     108   3   1   1   0   1   2285  2268  2252  2253  2836  2826  2837  2838
                               2827  2829
     109   3   1   1   0   1   2252  2286  2287  2288  2839  2840  2841  2842
                               2843  2844
     110   3   1   1   0   1    674  1027  2152    11  2845  2846  2127   673
                               1019  2129
     111   3   1   1   0   1   2252  2288  2269  2284  2842  2847  2834  2833
                               2848  2835
     112   3   1   1   0   1   2253  2268  2267  2254  2827  2761  2849  2720
                               2850  2851
     113   3   1   1   0   1   2253  2289  2285  2245  2852  2853  2838  2731
                               2854  2855
     114   3   1   1   0   1   2222  2223  2214  2213  2624  2617  2613  2625
                               2627  2589
     115   3   1   1   0   1   2222  2225  2290  2291  2622  2856  2857  2858
                               2859  2860
     116   3   1   1   0   1   2223  2281  2277  2292  2861  2810  2862  2863
                               2864  2865
     117   3   1   1   0   1   2222  2264  2225  2213  2866  2756  2622  2625
                               2867  2626
     118   3   1   1   0   1   2225  2213  2264  2293  2626  2867  2756  2868
                               2869  2870
     119   3   1   1   0   1   2294  2295  2089  2296  2871  2872  2873  2874
                               2875  2876
     120   3   1   1   0   1   2294  2295   754  2089  2871  2877  2878  2873
                               2872  2045
     121   3   1   1   0   1   2294   519  1143   521  2879  1098  2880  2881
                                520  1099
     122   3   1   1   0   1   2294   756  2293  2296  2882  2883  2884  2874
                               2885  2886
     123   3   1   1   0   1   2297  1303  2298  1292  2887  2888  2889  2890
                               1200  2891
     124   3   1   1   0   1   2297    82  1673  1286  2892  1619  2893  2894
                               1247  2895
     125   3   1   1   0   1   2297  2239  1667  1669  2896  2897  2898  2899
                               2900  1633
1

 ***** ANSYS - ENGINEERING ANALYSIS SYSTEM  RELEASE 15.0      *****
 ANSYS Academic Research                           
 00203145          VERSION=LINUX x64     10:48:11  OCT 01, 2014 CP=      4.735

                                                                               

 
    ELEM MAT TYP REL ESY SEC        NODES
 
     126   3   1   1   0   1   2218  1038  1027  1028  2901   972  2902  2903
                                982  1002
     127   3   1   1   0   1   2297  2299  1286  2300  2904  2905  2894  2906
                               2907  2908
     128   3   1   1   0   1   2297  2300  1667  2239  2906  2909  2898  2896
                               2910  2897
     129   3   1   1   0   1   2268  2297  2298  2284  2911  2889  2912  2832
                               2913  2914
     130   3   1   1   0   1   2274  1032   955   769  2915  2916  2917  2918
                                998   881
     131   3   1   1   0   1   2202  1300  2210  2209  2571  2569  2564  2557
                               2919  2920
     132   3   1   1   0   1   2208  2086  2211  2301  2921  2922  2923  2924
                               2925  2926
     133   3   1   1   0   1   2208  2215   762  2086  2927  2928  2929  2921
                               2930  2052
     134   3   1   1   0   1   2202  2211  2208  2097  2565  2923  2555  2560
                               2566  2561
     135   3   1   1   0   1   2295  2263  2302  2303  2931  2932  2933  2934
                               2935  2936
     136   3   1   1   0   1   2294  2302  2295  2263  2937  2933  2871  2938
                               2932  2931
     137   3   1   1   0   1   2295  2236  2304  2082  2939  2940  2941  2942
                               2943  2944
     138   3   1   1   0   1   2295  2294   752  2304  2871  2945  2946  2941
                               2947  2948
     139   3   1   1   0   1   2295  2082  2304   752  2942  2944  2941  2946
                               2043  2948
     140   3   1   1   0   1   2295  2155  2236  2082  2949  2950  2939  2942
                               2423  2943
     141   3   1   1   0   1   2295  2089  2154  2082  2872  2951  2952  2942
                               2001  2424
     142   3   1   1   0   1   2305  2306  2307  2308  2953  2954  2955  2956
                               2957  2958
     143   3   1   1   0   1   2305  2308  2309  2310  2956  2959  2960  2961
                               2962  2963
     144   3   1   1   0   1   1926  2305  2306  2307  2964  2953  2965  2966
                               2955  2954
     145   3   1   1   0   1   2305  1933  2307  1926  2967  2968  2955  2964
                               1783  2966
     146   3   1   1   0   1   2305  2311  1930  1923  2969  2970  2971  2972
                               2973  1818
     147   3   1   1   0   1   2305  2159  2312  1933  2974  2975  2976  2967
                               2977  2978
     148   3   1   1   0   1   2305  1930  2159  1933  2971  2979  2974  2967
                               1806  2977
     149   3   1   1   0   1   2313  2314  2315  2162  2980  2981  2982  2983
                               2984  2985
     150   3   1   1   0   1   2164   616  2316  2224  2986  2987  2988  2621
                               2989  2990
1

 ***** ANSYS - ENGINEERING ANALYSIS SYSTEM  RELEASE 15.0      *****
 ANSYS Academic Research                           
 00203145          VERSION=LINUX x64     10:48:11  OCT 01, 2014 CP=      4.736

                                                                               

 
    ELEM MAT TYP REL ESY SEC        NODES
 
     151   3   1   1   0   1   2164  2317  2316  2211  2991  2992  2988  2993
                               2994  2995
     152   3   1   1   0   1   2164  2316  2093  2211  2988  2996  2997  2993
                               2995  2998
     153   3   1   1   0   1   2286  2287  2318  2319  2840  2999  3000  3001
                               3002  3003
     154   3   1   1   0   1   2286  2289  2319  1307  3004  3005  3001  3006
                               3007  3008
     155   3   1   1   0   1   2286  2284  2289  1291  3009  3010  3004  3011
                               3012  3013
     156   3   1   1   0   1   2286  1670    86  1674  3014  1630  3015  3016
                               1614  1615
     157   3   1   1   0   1   2163  2215  2086   760  3017  2930  3018  3019
                               2591  2051
     158   3   1   1   0   1   2163  2086  2215  2301  3018  2930  3017  3020
                               2925  3021
     159   3   1   1   0   1   2259  1586  2320  2260  2738  3022  3023  2735
                               2739  3024
     160   3   1   1   0   1   2161  2163  2301  2092  2440  3020  3025  2441
                               2442  3026
     161   3   1   1   0   1   2163  2092  2086  2301  2442  1986  3018  3020
                               3026  2925
     162   3   1   1   0   1   2163  2213  2296  2264  3027  3028  3029  3030
                               2867  3031
     163   3   1   1   0   1   2163  2167  2264  2162  2452  3032  3030  3033
                               3034  3035
     164   3   1   1   0   1   2222  2163  2213  2215  3036  3027  2625  2612
                               3017  2590
     165   3   1   1   0   1   2203  2205  1300  1312  2549  2568  3037  3038
                               3039  1163
     166   3   1   1   0   1   2277  2292  2283  2223  2865  3040  2822  2862
                               2863  3041
     167   3   1   1   0   1   2215  2301  2208  2207  3021  2924  2927  3042
                               3043  2556
     168   3   1   1   0   1   2209  2203  2202  1300  3044  2545  2557  2919
                               3037  2571
     169   3   1   1   0   1    960  1029   767    44  3045  1016   855   856
                                967   766
     170   3   1   1   0   1   2321  2322  2207  2220  3046  3047  3048  3049
                               3050  3051
     171   3   1   1   0   1   2203  2220  1299  2206  3052  3053  3054  3055
                               2609  3056
     172   3   1   1   0   1   2202  2204  2317  2205  2547  3057  3058  2548
                               2550  3059
     173   3   1   1   0   1   2204  2322  2205  2203  3060  3061  2550  2546
                               3062  2549
     174   3   1   1   0   1   2244  2204  2322  2205  2701  3060  3063  3064
                               2550  3061
     175   3   1   1   0   1   2167  2323  2264  2324  3065  3066  3032  3067
                               3068  3069
1

 ***** ANSYS - ENGINEERING ANALYSIS SYSTEM  RELEASE 15.0      *****
 ANSYS Academic Research                           
 00203145          VERSION=LINUX x64     10:48:11  OCT 01, 2014 CP=      4.736

                                                                               

 
    ELEM MAT TYP REL ESY SEC        NODES
 
     176   3   1   1   0   1   2325   705   686   703  3070  2148  3071  3072
                                704  2147
     177   3   1   1   0   1   2161  2164  2092  2301  2443  3073  2441  3025
                               3074  3026
     178   3   1   1   0   1   2161  2167  2162  2313  2450  3034  2434  3075
                               3076  2983
     179   3   1   1   0   1   2167  2165  2326  2166  2451  3077  3078  3079
                               2448  3080
     180   3   1   1   0   1   2167  2162  2313  2324  3034  2983  3076  3067
                               3081  3082
     181   3   1   1   0   1   2266  2252  2273  2288  2825  3083  2787  3084
                               2842  3085
     182   3   1   1   0   1   2161  2163  2165  2301  2440  2449  2445  3025
                               3020  3086
     183   3   1   1   0   1   2327  2247  2328  2329  3087  3088  3089  3090
                               3091  3092
     184   3   1   1   0   1   2327  2328  2330  2326  3089  3093  3094  3095
                               3096  3097
     185   3   1   1   0   1   2331   951   959   952  3098   866  3099  3100
                                878   840
     186   3   1   1   0   1   2327  2332  2167  2309  3101  3102  3103  3104
                               3105  3106
     187   3   1   1   0   1   2327  2332  2333  2248  3101  3107  3108  3109
                               3110  3111
     188   3   1   1   0   1   2194  2334  2319  2251  3112  3113  3114  3115
                               3116  3117
     189   3   1   1   0   1   2194  2334  2335  2336  3112  3118  3119  3120
                               3121  3122
     190   3   1   1   0   1   2194  2335  2190  2336  3119  3123  3124  3120
                               3122  3125
     191   3   1   1   0   1   2187  2194  2336  2195  2522  3120  3126  2524
                               2523  3127
     192   3   1   1   0   1   2194  2249  2251  2287  3128  2716  3115  3129
                               3130  3131
     193   3   1   1   0   1   2194  2192  2249  2287  2525  3132  3128  3129
                               3133  3130
     194   3   1   1   0   1   2187  2336  2194  2190  3126  3120  2522  2513
                               3125  3124
     195   3   1   1   0   1   2337  2218  1435   693  3134  3135  3136  3137
                               3138  1390
     196   3   1   1   0   1   2337  1435   797  1434  3136  1407  3139  3140
                               1358  1408
     197   3   1   1   0   1   2337  2338   693  2339  3141  3142  3137  3143
                               3144  3145
     198   3   1   1   0   1   2337  2340  1925  2341  3146  3147  3148  3149
                               3150  3151
     199   3   1   1   0   1   2337  2228  1909  2340  3152  3153  3154  3146
                               3155  3156
     200   3   1   1   0   1   2337  2219  2218  2338  3157  2599  3134  3141
                               3158  3159
1

 ***** ANSYS - ENGINEERING ANALYSIS SYSTEM  RELEASE 15.0      *****
 ANSYS Academic Research                           
 00203145          VERSION=LINUX x64     10:48:11  OCT 01, 2014 CP=      4.736

                                                                               

 
    ELEM MAT TYP REL ESY SEC        NODES
 
     201   3   1   1   0   1   2342   488  2343   620  3160  3161  3162  3163
                               1956  3164
     202   3   1   1   0   1   2338   676   952   948  3165   899  3166  3167
                                896   877
     203   3   1   1   0   1   2342   620  2344  2314  3163  3168  3169  3170
                               3171  3172
     204   3   1   1   0   1   2342  2313  2314  2344  3173  2980  3170  3169
                               3174  3172
     205   3   1   1   0   1   2342  2308  2313  2344  3175  3176  3173  3169
                               3177  3174
     206   3   1   1   0   1   2341  2345  2346  2347  3178  3179  3180  3181
                               3182  3183
     207   3   1   1   0   1   2342  2310  2306  1768  3184  3185  3186  3187
                               3188  3189
     208   3   1   1   0   1   2342  2310  2308  2306  3184  2962  3175  3186
                               3185  2957
     209   3   1   1   0   1   2297  2348  2299  2239  3190  3191  2904  2896
                               3192  3193
     210   3   1   1   0   1   2242  2300  2079  2299  3194  3195  3196  3197
                               2907  3198
     211   3   1   1   0   1    608  2242  2300  2079  3199  3194  3200  2024
                               3196  3195
     212   3   1   1   0   1   2297  1673  2300  1286  2893  3201  2906  2894
                               2895  2908
     213   3   1   1   0   1   2299  2348  1303  1285  3191  3202  3203  3204
                               3205  1212
     214   3   1   1   0   1   2299  2239  2242  2300  3193  2685  3197  2907
                               2910  3194
     215   3   1   1   0   1   2212  2233  2228  2229  2656  3206  2636  3207
                               3208  3209
     216   3   1   1   0   1     11   948   674  1027   845   897   673  1019
                               2713  2845
     217   3   1   1   0   1   2243  2239  2267  1775  2689  3210  3211  2696
                               3212  3213
     218   3   1   1   0   1   1908  2228  2232  2340  3214  3215  3216  3217
                               3155  3218
     219   3   1   1   0   1   1909  2228  1908  2340  3153  3214  1854  3156
                               3155  3217
     220   3   1   1   0   1   2337  2339  2228  2340  3143  3219  3152  3146
                               3220  3155
     221   3   1   1   0   1   2349  2350  2292  2283  3221  3222  3223  3224
                               3225  3040
     222   3   1   1   0   1   2228  1440  2229   697  2635  2642  3209  3226
                               1397  3227
     223   3   1   1   0   1   2228   697  2229   695  3226  3227  3209  3228
                                696  3229
     224   3   1   1   0   1   2295  2324  2263  2351  3230  3231  2931  3232
                               3233  3234
     225   3   1   1   0   1   2263  2351  2323  2265  3234  3235  3236  2758
                               3237  3238
1

 ***** ANSYS - ENGINEERING ANALYSIS SYSTEM  RELEASE 15.0      *****
 ANSYS Academic Research                           
 00203145          VERSION=LINUX x64     10:48:11  OCT 01, 2014 CP=      4.737

                                                                               

 
    ELEM MAT TYP REL ESY SEC        NODES
 
     226   3   1   1   0   1   2263  2264  2323  2324  2755  3066  3236  3231
                               3069  3068
     227   3   1   1   0   1   2293  2225  2352  2263  2868  3239  3240  3241
                               2754  3242
     228   3   1   1   0   1   2263  2302  2303  2353  2932  2936  2935  3243
                               3244  3245
     229   3   1   1   0   1   2303  2263  2352  2265  2935  3242  3246  3247
                               2758  3248
     230   3   1   1   0   1   2225  2265  2291  2292  2757  3249  2859  3250
                               3251  3252
     231   3   1   1   0   1   2225  2264  2263  2293  2756  2755  2754  2868
                               2870  3241
     232   3   1   1   0   1   2337  2340  1909  1925  3146  3156  3154  3148
                               3147  1838
     233   3   1   1   0   1   2340  2341  1924  1925  3150  3253  3254  3147
                               3151  1823
     234   3   1   1   0   1   1434  1909  2228  1908  3255  3153  3256  3257
                               1854  3214
     235   3   1   1   0   1   2228  2340  2354  2232  3155  3258  3259  3215
                               3218  3260
     236   3   1   1   0   1   2340  1924  2341  2355  3254  3253  3150  3261
                               3262  3263
     237   3   1   1   0   1   2354  2340  1908  2232  3258  3217  3264  3260
                               3218  3216
     238   3   1   1   0   1   1924  2340  1908  2354  3254  3217  1841  3265
                               3258  3264
     239   3   1   1   0   1   2243  2255  2239  2240  3266  3267  2689  2690
                               3268  2682
     240   3   1   1   0   1   2255  2267  2239  2254  3269  3210  3267  2721
                               2851  3270
     241   3   1   1   0   1   2240  2254  2256  2255  3271  2724  3272  3268
                               2721  2725
     242   3   1   1   0   1   2258  2240  2254  2256  3273  3271  2732  2734
                               3272  2724
     243   3   1   1   0   1   2328  2267  2356  2255  3274  3275  3276  3277
                               3269  3278
     244   3   1   1   0   1   2357  2328  2267  2356  3279  3274  3280  3281
                               3276  3275
     245   3   1   1   0   1   2255  2267  2356  1774  3269  3275  3278  3282
                               3283  3284
     246   3   1   1   0   1   2253  2255  2267  2328  2722  3269  2849  3285
                               3277  3274
     247   3   1   1   0   1   2228  2339  2229  2233  3219  3286  3209  3206
                               3287  3208
     248   3   1   1   0   1   2229  2331  2233  2339  3288  3289  3208  3286
                               3290  3287
     249   3   1   1   0   1   2212  2229  2176  2233  3207  2641  2583  2656
                               3208  3291
     250   3   1   1   0   1   2176  1440  2229  2212  2639  2642  2641  2583
                               2579  3207
1

 ***** ANSYS - ENGINEERING ANALYSIS SYSTEM  RELEASE 15.0      *****
 ANSYS Academic Research                           
 00203145          VERSION=LINUX x64     10:48:11  OCT 01, 2014 CP=      4.738

                                                                               

 
    ELEM MAT TYP REL ESY SEC        NODES
 
     251   3   1   1   0   1   2335  1310  1305  1311  3292  1178  3293  3294
                               1170  1176
     252   3   1   1   0   1   2346  2233  2339  2354  3295  3287  3296  3297
                               3298  3299
     253   3   1   1   0   1   2233  2339  2354  2228  3287  3299  3298  3206
                               3219  3259
     254   3   1   1   0   1   2216  1441  1442  1449  3300  1351  2596  2593
                               1330  1331
     255   3   1   1   0   1   2220  2358  2322  1309  3301  3302  3050  3303
                               3304  3305
     256   3   1   1   0   1   2280  1145    50  1146  3306  1092  3307  3308
                               1090  1089
     257   3   1   1   0   1   2332  2359  2169  2360  3309  3310  3311  3312
                               3313  3314
     258   3   1   1   0   1   1299  2322  1309  2220  3315  3305  1185  3053
                               3050  3303
     259   3   1   1   0   1   2281  2222  2223  2220  3316  2624  2861  2811
                               3317  2618
     260   3   1   1   0   1   2220  1296  2282  2280  3318  3319  2813  2808
                               3320  2815
     261   3   1   1   0   1   2203  2220  2322  1299  3052  3050  3062  3054
                               3053  3315
     262   3   1   1   0   1   2153  2082  2081   782  2422  2009  2419  2427
                               2059  2062
     263   3   1   1   0   1   2155  2361  1927  1911  3321  3322  3323  3324
                               3325  1789
     264   3   1   1   0   1   2155  1928  2236  1912  3326  3327  2950  3328
                               1836  3329
     265   3   1   1   0   1   2362  2363   540   559  3330  3331  3332  3333
                               3334  1471
     266   3   1   1   0   1   2362  2189  1444   557  3335  3336  3337  3338
                               3339  1383
     267   3   1   1   0   1   2362  2195   538  2193  3340  3341  3342  3343
                               3344  3345
     268   3   1   1   0   1   2187  2362  2193  2195  3346  3343  2519  2524
                               3340  3344
     269   3   1   1   0   1   2285  2253  2254  2268  2838  2720  3347  2836
                               2827  2850
     270   3   1   1   0   1   2268  2297  2284  1669  2911  2913  2832  3348
                               2899  3349
     271   3   1   1   0   1   2266  2272  2267  1766  2777  3350  2760  2782
                               3351  2783
     272   3   1   1   0   1   2269  2284  1672  1669  2835  3352  3353  3354
                               3349  1612
     273   3   1   1   0   1   2267  1669  1776  2239  3355  3356  3357  3210
                               2900  3358
     274   3   1   1   0   1   2269   510  1766  1776  3359  1733  2781  3360
                               1703  1696
     275   3   1   1   0   1   2269  2288  1666  1672  2847  3361  2795  3353
                               3362  1624
1

 ***** ANSYS - ENGINEERING ANALYSIS SYSTEM  RELEASE 15.0      *****
 ANSYS Academic Research                           
 00203145          VERSION=LINUX x64     10:48:11  OCT 01, 2014 CP=      4.738

                                                                               

 
    ELEM MAT TYP REL ESY SEC        NODES
 
     276   3   1   1   0   1   1673  1662  1286    80  1621  3363  2895  1607
                               1642  1248
     277   3   1   1   0   1   2266  2269  2288  1666  2763  2847  3084  2796
                               2795  3361
     278   3   1   1   0   1   2269  1766   510  1666  2781  1733  3359  2795
                               2797  1648
     279   3   1   1   0   1   2156  2315  2307  2364  3364  3365  3366  3367
                               3368  3369
     280   3   1   1   0   1   2100  2075   837  1281  1968  2073  1969  3370
                               3371  1279
     281   3   1   1   0   1   2156  1911   784  2364  3372  1886  3373  3367
                               3374  3375
     282   3   1   1   0   1   2153  2155  2082  1912  2415  2423  2422  2426
                               3328  2425
     283   3   1   1   0   1    780  1912   782  2082  1883  1884   781  2060
                               2425  2059
     284   3   1   1   0   1   2156  2307  1926  2364  3366  2966  3376  3367
                               3369  3377
     285   3   1   1   0   1   2156  2307  2361  1926  3366  3378  3379  3376
                               2966  3380
     286   3   1   1   0   1   2214   760   527  2215  2588  2122  3381  2592
                               2591  3382
     287   3   1   1   0   1   2087  2163  2092  2086  2439  2442  1985  2004
                               3018  1986
     288   3   1   1   0   1   2215  2221  2214  2206  3383  2607  2592  2615
                               2611  2610
     289   3   1   1   0   1   2222  2214  2215  2213  2613  2592  2612  2625
                               2589  2590
     290   3   1   1   0   1   2202  2317  2204  2165  3058  3057  2547  3384
                               3385  3386
     291   3   1   1   0   1   2221  2215  2365  2206  3383  3387  3388  2611
                               2615  3389
     292   3   1   1   0   1   2208   764  2365  2209  3390  3391  3392  2558
                               3393  3394
     293   3   1   1   0   1   2208  2215  2086  2301  2927  2930  2921  2924
                               3021  2925
     294   3   1   1   0   1   2222  2207  2215  2206  3395  3042  2612  2614
                               2553  2615
     295   3   1   1   0   1   2242  2241  2077   610  2687  3396  3397  3398
                               3399  2027
     296   3   1   1   0   1   2242  1285  2078  2077  3400  3401  3402  3397
                               3403  2012
     297   3   1   1   0   1   2243   608  2242  2300  3404  3199  2688  3405
                               3200  3194
     298   3   1   1   0   1   2243  2242   610  2240  2688  3398  2698  2690
                               2686  2699
     299   3   1   1   0   1   2243  2239  2255  2267  2689  3267  3266  3211
                               3210  3269
     300   3   1   1   0   1   2243  2239  1775  1771  2689  3212  2696  3406
                               3407  1709
1

 ***** ANSYS - ENGINEERING ANALYSIS SYSTEM  RELEASE 15.0      *****
 ANSYS Academic Research                           
 00203145          VERSION=LINUX x64     10:48:11  OCT 01, 2014 CP=      4.738

                                                                               

 
    ELEM MAT TYP REL ESY SEC        NODES
 
     301   3   1   1   0   1   2332  2265  2366  2359  3408  3409  3410  3309
                               3411  3412
     302   3   1   1   0   1   2209  2075  2085  2100  3413  2006  3414  3415
                               1968  1967
     303   3   1   1   0   1   2159  2366  2157  2169  3416  3417  2430  2456
                               3418  3419
     304   3   1   1   0   1   2332  2360  2248  2367  3312  3420  3110  3421
                               3422  3423
     305   3   1   1   0   1   2368  2369  2370  1588  3424  3425  3426  3427
                               3428  3429
     306   3   1   1   0   1   1584  1588  1587  2370  1518  1537  1517  3430
                               3429  3431
     307   3   1   1   0   1   2368  2371  2370  2369  3432  3433  3426  3424
                               3434  3425
     308   3   1   1   0   1   2372   951   680   950  3435   900  3436  3437
                                879   903
     309   3   1   1   0   1   2369  2373  2371  2370  3438  3439  3434  3425
                               3440  3433
     310   3   1   1   0   1   1434  2337   693  2228  3140  3137  1393  3256
                               3152  3441
     311   3   1   1   0   1   2341  2355  2346  2339  3263  3442  3180  3443
                               3444  3296
     312   3   1   1   0   1   2337  2339  2340  2341  3143  3220  3146  3149
                               3443  3150
     313   3   1   1   0   1   2339  2341  2338  2374  3443  3445  3144  3446
                               3447  3448
     314   3   1   1   0   1   2355  2340  2339  2341  3261  3220  3444  3263
                               3150  3443
     315   3   1   1   0   1   2341  2276  2345  2347  3449  3450  3178  3181
                               3451  3182
     316   3   1   1   0   1   2200  1436  2375  2376  3452  3453  3454  3455
                               3456  3457
     317   3   1   1   0   1   2341  2338  2374  2219  3445  3448  3447  3458
                               3158  3459
     318   3   1   1   0   1   2341  2217  2219  2276  3460  2600  3458  3449
                               3461  3462
     319   3   1   1   0   1   2212  2233  2176  2178  2656  3291  2583  2585
                               2657  2586
     320   3   1   1   0   1   2233  2354  2346  2377  3298  3297  3295  3463
                               3464  3465
     321   3   1   1   0   1    699   950   682   701  3466   902  2143   700
                               3467  2144
     322   3   1   1   0   1   2156  2315  2154  2324  3364  3468  2417  3469
                               3470  3471
     323   3   1   1   0   1   2156  2098  2364  2080  3472  3473  3367  3474
                               1990  3475
     324   3   1   1   0   1   2155  2378  2351  2379  3476  3477  3478  3479
                               3480  3481
     325   3   1   1   0   1   2154  2361  2156  2324  3482  3379  2417  3471
                               3483  3469
1

 ***** ANSYS - ENGINEERING ANALYSIS SYSTEM  RELEASE 15.0      *****
 ANSYS Academic Research                           
 00203145          VERSION=LINUX x64     10:48:11  OCT 01, 2014 CP=      4.739

                                                                               

 
    ELEM MAT TYP REL ESY SEC        NODES
 
     326   3   1   1   0   1   2295  2155  2361  2351  2949  3321  3484  3232
                               3478  3485
     327   3   1   1   0   1   2155  2156  2361  1911  2418  3379  3321  3324
                               3372  3325
     328   3   1   1   0   1   2295  2303  2351  2263  2934  3486  3232  2931
                               2935  3234
     329   3   1   1   0   1   2295  2361  2324  2351  3484  3483  3230  3232
                               3485  3233
     330   3   1   1   0   1   2295  2379  2155  2351  3487  3479  2949  3232
                               3481  3478
     331   3   1   1   0   1   2156  2154  2315  2098  2417  3468  3364  3472
                               3488  3489
     332   3   1   1   0   1   2265  2349  2352  2377  3490  3491  3248  3492
                               3493  3494
     333   3   1   1   0   1   2377  2349  2352  2345  3493  3491  3494  3495
                               3496  3497
     334   3   1   1   0   1   2189  2196  2198  2175  3498  2529  3499  3500
                               2530  2532
     335   3   1   1   0   1   2303  2380  2352  2353  3501  3502  3246  3245
                               3503  3504
     336   3   1   1   0   1   2338   678   676   695  3505   677  3165  3506
                               2139  2138
     337   3   1   1   0   1   2337  2338  2218   693  3141  3159  3134  3137
                               3142  3138
     338   3   1   1   0   1    956  2374   952   955  3507  3508   869   870
                               3509   871
     339   3   1   1   0   1   2374   952   955  2338  3508   871  3509  3448
                               3166  3510
     340   3   1   1   0   1   2338  2339  2374  2331  3144  3446  3448  3511
                               3290  3512
     341   3   1   1   0   1   2337  2339  2341  2338  3143  3443  3149  3141
                               3144  3445
     342   3   1   1   0   1   2217  2337  2219  2218  3513  3157  2600  2598
                               3134  2599
     343   3   1   1   0   1   2338  2219   948   955  3158  2603  3167  3510
                               3514   883
     344   3   1   1   0   1   2305  2307  2312  2323  2955  3515  2976  3516
                               3517  3518
     345   3   1   1   0   1   2323  2361  2351  2324  3519  3485  3235  3068
                               3483  3233
     346   3   1   1   0   1   2167  2332  2326  2290  3102  3520  3078  3521
                               3522  3523
     347   3   1   1   0   1   2234  1034  1037    97  2659   976  2662  2670
                                992   978
     348   3   1   1   0   1   2323  2265  2377  2366  3238  3492  3524  3525
                               3409  3526
     349   3   1   1   0   1   2332  2323  2312  2366  3527  3518  3528  3410
                               3525  3529
     350   3   1   1   0   1   2323  2265  2290  2264  3238  3530  3531  3066
                               2759  3532
1

 ***** ANSYS - ENGINEERING ANALYSIS SYSTEM  RELEASE 15.0      *****
 ANSYS Academic Research                           
 00203145          VERSION=LINUX x64     10:48:11  OCT 01, 2014 CP=      4.740

                                                                               

 
    ELEM MAT TYP REL ESY SEC        NODES
 
     351   3   1   1   0   1   2263  2323  2264  2265  3236  3066  2755  2758
                               3238  2759
     352   3   1   1   0   1   2332  2323  2366  2265  3527  3525  3410  3408
                               3238  3409
     353   3   1   1   0   1   2357  2356  1778  1773  3281  3533  3534  3535
                               3536  1680
     354   3   1   1   0   1   2357  2381  2382  1779  3537  3538  3539  3540
                               3541  3542
     355   3   1   1   0   1   2357  2328  2250  2267  3279  3543  3544  3280
                               3274  2769
     356   3   1   1   0   1   2312  1934  1933  1932  3545  1805  2978  3546
                               1811  1814
     357   3   1   1   0   1   2357  2272  1767  1778  3547  3548  3549  3534
                               3550  1707
     358   3   1   1   0   1   2253  2285  2289  2252  2838  2853  2852  2829
                               2837  3551
     359   3   1   1   0   1   2273  2249  2270  1593  3552  3553  2788  3554
                               3555  3556
     360   3   1   1   0   1   2249  2273  2252  2287  3552  3083  2717  3130
                               3557  2841
     361   3   1   1   0   1   2273  1592  1594  2287  3558  1502  3559  3557
                               3560  3561
     362   3   1   1   0   1   1593  1592  1594  2273  1497  1502  1507  3554
                               3558  3559
     363   3   1   1   0   1   2273   627  2288  1594  3562  3563  3085  3559
                               1503  3564
     364   3   1   1   0   1   2273  2288   627  1581  3085  3563  3562  2786
                               3565  1532
     365   3   1   1   0   1   2274  2275  2374  2219  2789  3566  3567  3568
                               3569  3459
     366   3   1   1   0   1   2383  2345  2380  2186  3570  3571  3572  3573
                               3574  3575
     367   3   1   1   0   1   2380  2345  2184  2186  3571  3576  3577  3575
                               3574  3578
     368   3   1   1   0   1   2274  2275  2384  2374  2789  3579  3580  3567
                               3566  3581
     369   3   1   1   0   1    950   699   682   680  3466  2143   902   903
                               2142   681
     370   3   1   1   0   1   2275  2345  2385  2374  3582  3583  3584  3566
                               3585  3586
     371   3   1   1   0   1   2274  2384   956  2374  3580  3587  3588  3567
                               3581  3507
     372   3   1   1   0   1   2275  2345  2276  2182  3582  3450  2790  3589
                               3590  3591
     373   3   1   1   0   1   2182  2345  2184  2275  3590  3576  2508  3589
                               3582  3592
     374   3   1   1   0   1   2275  2345  2349  2385  3582  3496  3593  3584
                               3583  3594
     375   3   1   1   0   1   2152    12  1027  2218  2130  1008  2846  3595
                               3596  2902
1

 ***** ANSYS - ENGINEERING ANALYSIS SYSTEM  RELEASE 15.0      *****
 ANSYS Academic Research                           
 00203145          VERSION=LINUX x64     10:48:11  OCT 01, 2014 CP=      4.740

                                                                               

 
    ELEM MAT TYP REL ESY SEC        NODES
 
     376   3   1   1   0   1   2352  2349  2184  2345  3491  3597  3598  3497
                               3496  3576
     377   3   1   1   0   1   2229  2338   695   678  3599  3506  3229  3600
                               3505  2139
     378   3   1   1   0   1   2275  2349  2279  2384  3593  3601  3602  3579
                               3603  3604
     379   3   1   1   0   1   1136  2184  2386  2183  3605  3606  3607  3608
                               2509  3609
     380   3   1   1   0   1   2229  2372   951   680  3610  3435  3611  3612
                               3436   900
     381   3   1   1   0   1   2189  1444  1448  2200  3336  1327  3613  3614
                               3615  3616
     382   3   1   1   0   1   2199  2172  2175  2171  2543  2470  2534  2538
                               2459  2471
     383   3   1   1   0   1   2200  1444  1448  1437  3615  1327  3616  3617
                               1329  1339
     384   3   1   1   0   1   2200   705  2171  1437  3618  3619  2537  3617
                               1402  3620
     385   3   1   1   0   1   2200  2201  2171  2376  3621  2542  2537  3455
                               3622  3623
     386   3   1   1   0   1   2200  2171   705  2376  2537  3619  3618  3455
                               3623  3624
     387   3   1   1   0   1   2167  2162  2324  2264  3034  3081  3067  3032
                               3035  3069
     388   3   1   1   0   1   2161  2313  2166  2167  3075  3625  2446  2450
                               3076  3079
     389   3   1   1   0   1   2314  2161  2162  2313  3626  2434  2984  2980
                               3075  2983
     390   3   1   1   0   1   1026   691  2218    12  3627  3628  3629  1022
                                690  3596
     391   3   1   1   0   1   2313  2315  2344  2308  2982  3630  3174  3176
                               3631  3177
     392   3   1   1   0   1   2162  2314  2315  2091  2984  2981  2985  2438
                               3632  3633
     393   3   1   1   0   1   2091  2161  2162  2314  2437  2434  2438  3632
                               3626  2984
     394   3   1   1   0   1   2342  2313  2308  2387  3173  3176  3175  3634
                               3635  3636
     395   3   1   1   0   1   2164  2317  2330  2316  2991  3637  3638  2988
                               2992  3639
     396   3   1   1   0   1   2307  2323  2308  2324  3517  3640  2958  3641
                               3068  3642
     397   3   1   1   0   1   2313  2308  2387  2166  3176  3636  3635  3625
                               3643  3644
     398   3   1   1   0   1   2216  2158  2160  2388  3645  2432  3646  3647
                               3648  3649
     399   3   1   1   0   1   2212  1432  2232  1449  2634  3650  2651  2576
                               1341  3651
     400   3   1   1   0   1   2216  2262   563  1441  3652  3653  3654  3300
                               3655  1389
1

 ***** ANSYS - ENGINEERING ANALYSIS SYSTEM  RELEASE 15.0      *****
 ANSYS Academic Research                           
 00203145          VERSION=LINUX x64     10:48:11  OCT 01, 2014 CP=      4.740

                                                                               

 
    ELEM MAT TYP REL ESY SEC        NODES
 
     401   3   1   1   0   1   2169  2216  2160  2177  2604  3646  2457  2581
                               2605  3656
     402   3   1   1   0   1   2216  2212  2179  2169  2652  2575  2594  2604
                               2653  2582
     403   3   1   1   0   1   2216  1431  2158  1441  3657  3658  3645  3300
                               1350  3659
     404   3   1   1   0   1   2216  1431  2232  2158  3657  3660  2649  3645
                               3658  3661
     405   3   1   1   0   1   2179  2216  2177  1442  2594  2605  2477  2595
                               2596  2597
     406   3   1   1   0   1   2216  2177  1442  2160  2605  2597  2596  3646
                               3656  2780
     407   3   1   1   0   1   1133   640   939   642  1126   931  3662  1125
                                641   932
     408   3   1   1   0   1   1138  2282  1151  2221  3663  2816  1065  3664
                               3665  3666
     409   3   1   1   0   1   1297  2282  1138  2365  3667  3663  3668  3669
                               3670  3671
     410   3   1   1   0   1    762  2365   527  2215  3672  3673  2121  2928
                               3387  3382
     411   3   1   1   0   1   2365   527  2215  2221  3673  3382  3387  3388
                               3674  3383
     412   3   1   1   0   1   2221  2365   527  1138  3388  3673  3674  3664
                               3671  1110
     413   3   1   1   0   1   2221  1148  2214  2223  3675  3676  2607  2616
                               3677  2617
     414   3   1   1   0   1   2221  2206  2365  2282  2611  3389  3388  3665
                               3678  3670
     415   3   1   1   0   1   2220  2221  2282  2206  2608  3665  2813  2609
                               2611  3678
     416   3   1   1   0   1   2382  2328  2356  2330  3679  3276  3680  3681
                               3093  3682
     417   3   1   1   0   1   2357  1779  2382  1773  3540  3542  3539  3535
                               1691  3683
     418   3   1   1   0   1   2382  2310  2309  2387  3684  2963  3685  3686
                               3687  3688
     419   3   1   1   0   1   2382  2381  1770  1779  3538  3689  3690  3542
                               3541  1675
     420   3   1   1   0   1   2382  2309  2166  2387  3685  3691  3692  3686
                               3688  3644
     421   3   1   1   0   1   2327  2381  2382  2328  3693  3538  3694  3089
                               3695  3679
     422   3   1   1   0   1   2310  1768  1770   658  3188  1717  3696  3697
                               1735  1736
     423   3   1   1   0   1   2310  2309  2387  2308  2963  3688  3687  2962
                               2959  3636
     424   3   1   1   0   1   2306  1768  2343  2342  3189  3698  3699  3186
                               3187  3162
     425   3   1   1   0   1   1768  2310  2306  2389  3188  3185  3189  3700
                               3701  3702
1

 ***** ANSYS - ENGINEERING ANALYSIS SYSTEM  RELEASE 15.0      *****
 ANSYS Academic Research                           
 00203145          VERSION=LINUX x64     10:48:11  OCT 01, 2014 CP=      4.741

                                                                               

 
    ELEM MAT TYP REL ESY SEC        NODES
 
     426   3   1   1   0   1   2310  1919  2389  1768  3703  3704  3701  3188
                               3705  3700
     427   3   1   1   0   1   2190  2328  2329  2204  3706  3092  3707  2705
                               3708  3709
     428   3   1   1   0   1   2328  2204  2330  2326  3708  3710  3093  3096
                               3711  3097
     429   3   1   1   0   1   2357  2382  2381  2328  3539  3538  3537  3279
                               3679  3695
     430   3   1   1   0   1   2250  2328  2329  2190  3543  3092  3712  3713
                               3706  3707
     431   3   1   1   0   1   2253  2250  2328  2267  2828  3543  3285  2849
                               2769  3274
     432   3   1   1   0   1   2265  2359  2390  2366  3411  3714  3715  3409
                               3412  3716
     433   3   1   1   0   1   2265  2367  2290  2291  3717  3718  3530  3249
                               3719  2860
     434   3   1   1   0   1   2294  2263  2353  2302  2938  3243  3720  2937
                               2932  3244
     435   3   1   1   0   1   2332  2159  2311  2333  3721  3722  3723  3107
                               3724  3725
     436   3   1   1   0   1   2323  2377  2351  2312  3524  3726  3235  3518
                               3727  3728
     437   3   1   1   0   1   2335  2190  2189  2197  3123  2515  3729  3730
                               3731  3732
     438   3   1   1   0   1   2188  2391  2198  2197  3733  3734  3735  3736
                               3737  2528
     439   3   1   1   0   1   2188  2190  2246  2391  2514  3738  3739  3733
                               3740  3741
     440   3   1   1   0   1   2187  2362  2188  2191  3346  3742  2510  2516
                               3743  3744
     441   3   1   1   0   1   2362  2191  2193  2363  3743  2520  3343  3330
                               3745  3746
     442   3   1   1   0   1   2188  2191  2246  2329  3744  3747  3739  3748
                               3749  3750
     443   3   1   1   0   1   2190  2329  2187  2188  3707  3751  2513  2514
                               3748  2510
     444   3   1   1   0   1   2350   942   957   945  3752   861  3753  3754
                                887   872
     445   3   1   1   0   1   2188  2363  2198  2246  3755  3756  3735  3739
                               3757  3758
     446   3   1   1   0   1   2198  2160  2175  2360  3759  3760  2532  3761
                               3762  3763
     447   3   1   1   0   1   2175  2170  2178  1438  2469  3764  2481  2482
                               2654  2479
     448   3   1   1   0   1   2177  2160  1438  1442  3656  2779  2478  2597
                               2780  1334
     449   3   1   1   0   1   1438  2170  2178  2176  2654  3764  2479  2655
                               2473  2586
     450   3   1   1   0   1   2177  2360  2169  2178  3765  3314  2581  2475
                               3766  2580
1

 ***** ANSYS - ENGINEERING ANALYSIS SYSTEM  RELEASE 15.0      *****
 ANSYS Academic Research                           
 00203145          VERSION=LINUX x64     10:48:11  OCT 01, 2014 CP=      4.742

                                                                               

 
    ELEM MAT TYP REL ESY SEC        NODES
 
     451   3   1   1   0   1   2261  2320  2168  2260  3767  3768  3769  3770
                               3024  3771
     452   3   1   1   0   1   1587  2259  2261  1916  3772  2749  3773  3774
                               2740  3775
     453   3   1   1   0   1   2259  1587  2320  1586  3772  3776  3023  2738
                               1516  3022
     454   3   1   1   0   1   2210  2205  1301  1300  2570  3777  3778  2569
                               2568  1194
     455   3   1   1   0   1   2278   939   945   938  3779   915  3780  3781
                                924   916
     456   3   1   1   0   1   2210  2392  2211  2097  3782  3783  2567  2563
                               3784  2566
     457   3   1   1   0   1   2317  2241  2240  2392  3785  2683  3786  3787
                               3788  3789
     458   3   1   1   0   1   2392  2210  2317  2241  3782  3790  3787  3788
                               3791  3785
     459   3   1   1   0   1   2210  2317  2258  2205  3790  3792  3793  2570
                               3059  3794
     460   3   1   1   0   1   2202  2317  2211  2210  3058  2994  2565  2564
                               3790  2567
     461   3   1   1   0   1   2210   833  2392  2076  3795  3796  3782  3797
                               2072  3798
     462   3   1   1   0   1   2210  2209  1300  1283  2920  2919  2569  3799
                               3800  1217
     463   3   1   1   0   1   2393  2394  1916  1917  3801  3802  3803  3804
                               3805  1847
     464   3   1   1   0   1   2310  2393  2311  1918  3806  3807  3808  3809
                               3810  3811
     465   3   1   1   0   1   2393  2368  2311  2394  3812  3813  3807  3801
                               3814  3815
     466   3   1   1   0   1   2393  1769  2368  1917  3816  3817  3812  3804
                               3818  3819
     467   3   1   1   0   1    961     2  1295  1153   852  1166  3820  3821
                               1051  3822
     468   3   1   1   0   1   2393  2311  1918  1930  3807  3811  3810  3823
                               2970  1832
     469   3   1   1   0   1   2253  2267  2268  2250  2849  2761  2827  2828
                               2769  2770
     470   3   1   1   0   1   2255  2328  2256  2356  3277  3824  2725  3278
                               3276  3825
     471   3   1   1   0   1   2267  1775  2239  1776  3213  3212  3210  3357
                               1704  3358
     472   3   1   1   0   1   2267  2272  1778  1766  3350  3550  3826  2783
                               3351  1708
     473   3   1   1   0   1   2243  2255  2240  1774  3266  3268  2690  2693
                               3282  2700
     474   3   1   1   0   1   2243  1771  2300  2239  3406  3827  3405  2689
                               3407  2910
     475   3   1   1   0   1   2241  2210  2317  2258  3791  3790  3785  3828
                               3793  3792
1

 ***** ANSYS - ENGINEERING ANALYSIS SYSTEM  RELEASE 15.0      *****
 ANSYS Academic Research                           
 00203145          VERSION=LINUX x64     10:48:11  OCT 01, 2014 CP=      4.742

                                                                               

 
    ELEM MAT TYP REL ESY SEC        NODES
 
     476   3   1   1   0   1   2243  2242  2239  2300  2688  2685  2689  3405
                               3194  2910
     477   3   1   1   0   1   1774  2240   612  2356  2700  2697  2694  3284
                               3829  3830
     478   3   1   1   0   1   2356  2240   612  2316  3829  2697  3830  3831
                               3832  3833
     479   3   1   1   0   1   2240  2317  2256  2258  3786  3834  3272  3273
                               3792  2734
     480   3   1   1   0   1   2395   945   953   954  3835   885  3836  3837
                                886   890
     481   3   1   1   0   1   2229   695  2338  2339  3229  3506  3599  3286
                               3838  3144
     482   3   1   1   0   1   2254  2240  2241  2239  3271  2683  3839  3270
                               2682  2684
     483   3   1   1   0   1    938  1132   642   644  3840  1128   933   934
                               1127   643
     484   3   1   1   0   1   2341  2339  2346  2374  3443  3296  3180  3447
                               3446  3841
     485   3   1   1   0   1   2339  2228   695   693  3219  3228  3838  3145
                               3441   694
     486   3   1   1   0   1   2337  2228  1434  1909  3152  3256  3140  3154
                               3153  3255
     487   3   1   1   0   1   2199  2321  2358  2322  3842  3843  3844  3845
                               3046  3302
     488   3   1   1   0   1   2200  2175  1437  2171  2539  3846  3617  2537
                               2471  3620
     489   3   1   1   0   1   2217  1925  1038  2396  3847  3848  3849  3850
                               3851  3852
     490   3   1   1   0   1   2360  2231  2172  2175  3853  3854  3855  3763
                               3856  2470
     491   3   1   1   0   1   2170  2171  2174  2325  2458  3857  2466  3858
                               3859  3860
     492   3   1   1   0   1   1443  2362  2198  2175  3861  3862  3863  3864
                               3865  2532
     493   3   1   1   0   1   2175  2198  1443  2160  2532  3863  3864  3760
                               3759  2778
     494   3   1   1   0   1   2218  1910    91  1038  3866  1859  3867  2901
                               3868   970
     495   3   1   1   0   1   2170  2175  1437  1438  2469  3846  3869  2654
                               2482  1355
     496   3   1   1   0   1   2170  2172  2174  2173  2460  3870  2466  2461
                               2463  3871
     497   3   1   1   0   1   2170  2171  2325  1437  2458  3859  3858  3869
                               3620  3872
     498   3   1   1   0   1   2345  2377  2349  2385  3495  3493  3496  3583
                               3873  3594
     499   3   1   1   0   1   2345  2182  2186  2347  3590  2505  3574  3182
                               3874  3875
     500   3   1   1   0   1   2397   954   961   938  3876   848  3877  3878
                                889   849
1

 ***** ANSYS - ENGINEERING ANALYSIS SYSTEM  RELEASE 15.0      *****
 ANSYS Academic Research                           
 00203145          VERSION=LINUX x64     10:48:11  OCT 01, 2014 CP=      4.742

                                                                               

 
    ELEM MAT TYP REL ESY SEC        NODES
 
     501   3   1   1   0   1   2345  2377  2385  2346  3495  3873  3583  3179
                               3465  3879
     502   3   1   1   0   1   2374  2219  2275  2345  3459  3569  3566  3585
                               3880  3582
     503   3   1   1   0   1   2341  2345  2374  2346  3178  3585  3447  3180
                               3179  3841
     504   3   1   1   0   1   2362  2188  2191  2363  3742  3744  3743  3330
                               3755  3745
     505   3   1   1   0   1   2362  2363   559  1443  3330  3334  3333  3861
                               3881  1385
     506   3   1   1   0   1   2188  2191  2363  2246  3744  3745  3755  3739
                               3747  3757
     507   3   1   1   0   1   2196  2197  2189  2198  2527  3732  3498  2529
                               2528  3499
     508   3   1   1   0   1   2190  2189  2197  2188  2515  3732  3731  2514
                               2511  3736
     509   3   1   1   0   1   2363  2198  2160  1443  3756  3759  3882  3881
                               3863  2778
     510   3   1   1   0   1   2198  2246  2168  2360  3758  2709  3883  3761
                               3884  3885
     511   3   1   1   0   1   2196  2200  2175  2189  3886  2539  2530  3498
                               3614  3500
     512   3   1   1   0   1   2375  2196  2226  2200  3887  3888  3889  3454
                               3886  3890
     513   3   1   1   0   1   2197  2189  2198  2188  3732  3499  2528  3736
                               2511  3735
     514   3   1   1   0   1   2199  2321  2172  2358  3842  3891  2543  3844
                               3843  3892
     515   3   1   1   0   1   2175  2362  2198  2189  3865  3862  2532  3500
                               3335  3499
     516   3   1   1   0   1   2189  1444  2175  2362  3336  3893  3500  3335
                               3337  3865
     517   3   1   1   0   1   2303  2265  2377  2351  3247  3492  3894  3486
                               3237  3726
     518   3   1   1   0   1   2295  2302  2379  2303  2933  3895  3487  2934
                               2936  3896
     519   3   1   1   0   1   2295  2324  2296  2263  3230  3897  2875  2931
                               3231  3898
     520   3   1   1   0   1   2351  2383  2379  2378  3899  3900  3481  3477
                               3901  3480
     521   3   1   1   0   1   2323  2307  2312  2361  3517  3515  3518  3519
                               3378  3902
     522   3   1   1   0   1   2323  2377  2265  2351  3524  3492  3238  3235
                               3726  3237
     523   3   1   1   0   1   1298  2358  2201  1309  3903  3904  3905  1186
                               3304  3906
     524   3   1   1   0   1   2158  2232  2216  2169  3661  2649  3645  3907
                               2650  2604
     525   3   1   1   0   1   2169  2332  2159  2366  3311  3721  2456  3418
                               3410  3416
1

 ***** ANSYS - ENGINEERING ANALYSIS SYSTEM  RELEASE 15.0      *****
 ANSYS Academic Research                           
 00203145          VERSION=LINUX x64     10:48:11  OCT 01, 2014 CP=      4.743

                                                                               

 
    ELEM MAT TYP REL ESY SEC        NODES
 
     526   3   1   1   0   1   2159  2160  2388  2168  2433  3649  3908  2453
                               2454  3909
     527   3   1   1   0   1   2169  2354  2366  2157  3910  3911  3418  3419
                               3912  3417
     528   3   1   1   0   1   2337  1435  1910   797  3136  3913  3914  3139
                               1407  1888
     529   3   1   1   0   1   2159  2160  2169  2157  2433  2457  2456  2430
                               2431  3419
     530   3   1   1   0   1   2274  2276  1032  1036  2791  3915  2915  3916
                               3917   986
     531   3   1   1   0   1   2345  2186  2383  2347  3574  3573  3570  3182
                               3875  3918
     532   3   1   1   0   1   2182  2235  1036  1034  2667  3919  3920  2660
                               3921   973
     533   3   1   1   0   1   2182  2183  1036  2276  2494  3922  3920  3591
                               2794  3917
     534   3   1   1   0   1   2182  2347  2235  2186  3874  3923  2667  2505
                               3875  2666
     535   3   1   1   0   1   2278  2395  2280  1295  3924  3925  3926  3927
                               3928  3929
     536   3   1   1   0   1   2278  2279  1133  1139  2805  3930  3931  2802
                               2806  1109
     537   3   1   1   0   1   2280  2278  2350  2395  3926  3932  3933  3925
                               3924  3934
     538   3   1   1   0   1   2277  2292  2281  2398  2865  2864  2810  3935
                               3936  3937
     539   3   1   1   0   1   2277  2398  2281  2350  3935  3937  2810  3938
                               3939  3940
     540   3   1   1   0   1   2277  1139  2283  2279  2803  2823  2822  2804
                               2806  3941
     541   3   1   1   0   1   2277  2278  2350  2280  2801  3932  3938  2809
                               3926  3933
     542   3   1   1   0   1   2277  2279  2350  2278  2804  3942  3938  2801
                               2805  3932
     543   3   1   1   0   1   2218  2217  1038  1028  2598  3849  2901  2903
                               3943   982
     544   3   1   1   0   1   2218  2217  1028   948  2598  3943  2903  2602
                               2601  3944
     545   3   1   1   0   1   2337  1434   693  1435  3140  1393  3137  3136
                               1358  1390
     546   3   1   1   0   1   2341  2219  2337  2338  3458  3157  3149  3445
                               3158  3141
     547   3   1   1   0   1   2337  1038  2217  1925  3945  3849  3513  3148
                               3848  3847
     548   3   1   1   0   1   2218  1435  1446  1910  3135  1370  3946  3866
                               3913  3947
     549   3   1   1   0   1   2218  1435   691  1446  3135  1391  3628  3946
                               1370  1372
     550   3   1   1   0   1   2250  2270  2191  2399  2831  3948  3949  3950
                               3951  3952
1

 ***** ANSYS - ENGINEERING ANALYSIS SYSTEM  RELEASE 15.0      *****
 ANSYS Academic Research                           
 00203145          VERSION=LINUX x64     10:48:11  OCT 01, 2014 CP=      4.744

                                                                               

 
    ELEM MAT TYP REL ESY SEC        NODES
 
     551   3   1   1   0   1   2327  2247  2329  2248  3087  3091  3090  3109
                               2711  3953
     552   3   1   1   0   1   2357  2328  2381  2250  3279  3695  3537  3544
                               3543  3954
     553   3   1   1   0   1   2253  2252  2289  2251  2829  3551  2852  3955
                               2719  3956
     554   3   1   1   0   1     12   691  2218  2152   690  3628  3596  2130
                               2128  3595
     555   3   1   1   0   1    769   767   949  1029   768   906   905  1015
                               1016  3957
     556   3   1   1   0   1   2253  2255  2328  2256  2722  3277  3285  2723
                               2725  3824
     557   3   1   1   0   1   2328  2253  2190  2250  3285  3958  3706  3543
                               2828  3713
     558   3   1   1   0   1   2270  2249  2266  2250  3553  3959  2775  2831
                               2714  2771
     559   3   1   1   0   1    771   773  1028   948   772  1017  1018   908
                                907  3944
     560   3   1   1   0   1   2329  2187  2188  2191  3751  2510  3748  3749
                               2516  3744
     561   3   1   1   0   1   2363  2400   542  2388  3960  3961  3962  3963
                               3964  3965
     562   3   1   1   0   1   2362   540   538   557  3332   539  3342  3338
                               1470  1469
     563   3   1   1   0   1   2191  2401  2329  2399  3966  3967  3749  3952
                               3968  3969
     564   3   1   1   0   1   2191  2400  2401  2402  3970  3971  3966  3972
                               3973  3974
     565   3   1   1   0   1   2258  2241  2240  2317  3828  2683  3273  3792
                               3785  3786
     566   3   1   1   0   1   1028   948   773  1027  3944   907  1017  1002
                               2713  1020
     567   3   1   1   0   1   2317  2330  2204  2165  3637  3710  3057  3385
                               3975  3386
     568   3   1   1   0   1   2202  2204  2203  2207  2547  2546  2545  2552
                               2646  3976
     569   3   1   1   0   1   2210  2317  2211  2392  3790  2994  2567  3782
                               3787  3783
     570   3   1   1   0   1   2268  2239  2267  2254  3977  3210  2761  2850
                               3270  2851
     571   3   1   1   0   1   2284  1292  2297  2298  3978  2890  2913  2914
                               2891  2889
     572   3   1   1   0   1   1671  2284  1292  2297  3979  3978  3980  3981
                               2913  2890
     573   3   1   1   0   1   2252  2289  2286  2284  3551  3004  2839  2833
                               3010  3009
     574   3   1   1   0   1   2380  2185  1144  2302  3982  3983  3984  3985
                               3986  3987
     575   3   1   1   0   1   2284  2288  1672  1668  2848  3362  3352  3988
                               3989  1623
1

 ***** ANSYS - ENGINEERING ANALYSIS SYSTEM  RELEASE 15.0      *****
 ANSYS Academic Research                           
 00203145          VERSION=LINUX x64     10:48:11  OCT 01, 2014 CP=      4.744

                                                                               

 
    ELEM MAT TYP REL ESY SEC        NODES
 
     576   3   1   1   0   1   2286  1670  2284  1291  3014  3990  3009  3011
                               3991  3012
     577   3   1   1   0   1   2195  2192  1592  1591  2526  3992  3993  3994
                               3995  1511
     578   3   1   1   0   1   2195   538   536   555  3341   537  3996  3997
                               1468  1467
     579   3   1   1   0   1   2362  2195  2189   557  3340  3998  3335  3338
                               3999  3339
     580   3   1   1   0   1   2187  2362  2195  2189  3346  3340  2524  2512
                               3335  3998
     581   3   1   1   0   1   2195  2336   555   553  3127  4000  3997  4001
                               4002   554
     582   3   1   1   0   1   2187  2192  2195  2193  2518  2526  2524  2519
                               2521  3344
     583   3   1   1   0   1   2188  2190  2329  2246  2514  3707  3748  3739
                               3738  3750
     584   3   1   1   0   1   2191  2329  2401  2246  3749  3967  3966  3747
                               3750  4003
     585   3   1   1   0   1   2253  2190  2250  2251  3958  3713  2828  3955
                               4004  2715
     586   3   1   1   0   1   2329  2246  2247  2401  3750  2707  3091  3967
                               4003  4005
     587   3   1   1   0   1   2329  2204  2326  2391  3709  3711  4006  4007
                               4008  4009
     588   3   1   1   0   1   2329  2246  2391  2248  3750  3741  4007  3953
                               2710  4010
     589   3   1   1   0   1   2244  2403  2335  1310  4011  4012  4013  4014
                               4015  3292
     590   3   1   1   0   1   2244  2322  2403  1310  3063  4016  4011  4014
                               4017  4015
     591   3   1   1   0   1   2244  2190  2335  2197  2704  3123  4013  4018
                               3731  3730
     592   3   1   1   0   1   2244  2190  2391  2204  2704  3740  4019  2701
                               2705  4008
     593   3   1   1   0   1   2244  2204  2231  2322  2701  2645  4020  3063
                               3060  4021
     594   3   1   1   0   1   2164   616  2224  2092  2986  2989  2621  3073
                               2033  4022
     595   3   1   1   0   1   2218  1027  2152   674  2902  2846  3595  4023
                               2845  2127
     596   3   1   1   0   1   2202  2207  2301  2165  2552  3043  4024  3384
                               4025  3086
     597   3   1   1   0   1   2094  2316  2093   614  4026  2996  1996  2030
                               4027  2031
     598   3   1   1   0   1   2316  2356   482   612  3831  4028  4029  3833
                               3830  1951
     599   3   1   1   0   1   2164  2301  2211  2093  3074  2926  2993  2997
                               4030  2998
     600   3   1   1   0   1   2316  1773  2382  2224  4031  3683  4032  2990
                               4033  4034
1

[...]
    4737   2   1   1   0   1   6356  6370  6308   540  7384  7383  7380  7601
                               7707  7602
    4738   2   1   1   0   1    413   248   339   250  6066  5401  7978  6065
                                249  5402
    4739   2   1   1   0   1   5553  6001  6363  5555  7667  7094  7701  5456
                               7093  7095
    4740   2   1   1   0   1    413   339   341   250  7978   340  8033  6065
                               5402  5403
    4741   2   1   1   0   1    572  6301  6311   534  6745  6706  6582  7947
                               6705  6704
    4742   2   1   1   0   1   6364  1595  1593  1580  7289  1508  7218  7215
                               1509  1521
    4743   2   1   1   0   1   6360   597   595  6347  7299   596  7597  7297
                               7300  7608
    4744   2   1   1   0   1   5770  2125  5162   729  7871  7991  7990  6682
                               7873  5145
    4745   2   1   1   0   1    380   341   382   411  5838  5839   381  5598
                               8012  5597
    4746   2   1   1   0   1    252   409   343   411  6062  7971  5405  6063
                                410  8011
    4747   2   1   1   0   1    339   415   378   337  7979  5601  5829   338
                               7870  5837
    4748   2   1   1   0   1   6015  4928  6256  4929  7821  7921  7788  7776
                               4919  8036
    4749   2   1   1   0   1   6257  4929  6015  6256  7772  7776  7775  6030
                               8036  7788
    4750   2   1   1   0   1   5767  6256  4928    33  7919  7921  7920  5587
                               6052  4927
1

 ***** ANSYS - ENGINEERING ANALYSIS SYSTEM  RELEASE 15.0      *****
 ANSYS Academic Research                           
 00203145          VERSION=LINUX x64     10:48:11  OCT 01, 2014 CP=      4.792

                                                                               

 
    ELEM MAT TYP REL ESY SEC        NODES
 
    4751   2   1   1   0   1    397  5767  6256   394  5586  7919  6050  5636
                               5584  8037
    4752   2   1   1   0   1   5540  1581   627   625  6858  1532  5521  5520
                               1533   626
    4753   2   1   1   0   1   5551  6330  6279  5556  6778  7079  6787  5453
                               7111  6785
    4754   2   1   1   0   1   6322  6329   503   501  6764  6761  6762  7074
                               7833   502
    4755   2   1   1   0   1   6283  6328  6323  6324  7144  6771  7143  7157
                               7284  6701
    4756   2   1   1   0   1   6338  6337   640   642  6838  6836  6839  6842
                               6848   641
    4757   2   1   1   0   1   6325   538  6308   536  7561  7087  7558  7747
                                537  7086
    4758   2   1   1   0   1   6268  5756  5762  5761  6407  5684  7643  7341
                               5686  5683
    4759   2   1   1   0   1   6365  1588  1584  1576  7702  1518  8035  7614
                               1536  1550
    4760   2   1   1   0   1    529  6260  6233     1  8039  6033  6791   530
                               6035  6217
    4761   2   1   1   0   1   6360  6346   595   593  7451  7607  7597  7032
                               6931   594
    4762   2   1   1   0   1    743   529   762   745  6555  2124  5161   744
                               6556  5140
    4763   2   1   1   0   1   6303   745  6233   529  6552  6559  6558  6554
                               6556  6791
    4764   2   1   1   0   1   6280  5556  6299  6361  6786  7114  7043  7048
                               7691  7115
    4765   2   1   1   0   1   6371  6363  6356  6326  7373  7372  7374  7577
                               7120  7570
    4766   2   1   1   0   1   5163    18  6260     5  5143  6034  6643  5144
                               5135  6036
    4767   2   1   1   0   1   1766   512  1765  5538  1732  1746  1745  6780
                               5524  7882
    4768   2   1   1   0   1   6229    18   745  5338  6224   746  6560  7893
                               5204  5203
    4769   2   1   1   0   1   6268  5762  5758  5761  7643  5657  7644  7341
                               5683  5562
    4770   2   1   1   0   1   6348  6241  5326  5327  6945  7595  7592  7963
                               8041  5244
    4771   2   1   1   0   1   6328  1578   497   499  7145  1567  7801  6755
                               1568   498
    4772   2   1   1   0   1   5770  5162     7    23  7990  5148  5575  5574
                               5146  5136
    4773   2   1   1   0   1   6315  5554  6348  6361  7633  7629  6944  7328
                               7630  7591
    4774   2   1   1   0   1   6314   238   425   236  8000  6114  6609  6614
                                237  6113
    4775   2   1   1   0   1   6296  6297  5988   603  6504  6511  6501  6506
                               6505  7610
1

 ***** ANSYS - ENGINEERING ANALYSIS SYSTEM  RELEASE 15.0      *****
 ANSYS Academic Research                           
 00203145          VERSION=LINUX x64     10:48:11  OCT 01, 2014 CP=      4.792

                                                                               

 
    ELEM MAT TYP REL ESY SEC        NODES
 
    4776   2   1   1   0   1   6354  5994  6001  5985  7604  5942  7368  7566
                               5943  5773
    4777   2   1   1   0   1   6288    64  5331  5317  6467  5267  7915  7522
                               5264  5240
    4778   2   1   1   0   1   6345  5324   593  5325  6927  5286  6930  6936
                               5246  5285
    4779   2   1   1   0   1   6309  5541  5549  5552  6746  5354  6748  7578
                               5477  5468
    4780   2   1   1   0   1   6362  5315  5321  5314  7648  5233  7520  7635
                               5256  5234
    4781   2   1   1   0   1   6325  6356  6326  6371  7556  7570  6731  7557
                               7374  7577
    4782   2   1   1   0   1   6268  6318  6358  6270  7334  7502  7307  6408
                               6662  7013
    4783   2   1   1   0   1   6297   601  5320   603  6508  5294  7066  6505
                                602  5295
    4784   2   1   1   0   1   5337     9    68  5990  5208    69  5206  7071
                               5973  5974
    4785   2   1   1   0   1   5992   315   317  5545  5928   316  5936  7618
                               5478  5490
    4786   2   1   1   0   1   1597  1593  6357  1595  1495  7225  6994  1496
                               1508  6992
    4787   2   1   1   0   1   6365  1588  1587  1584  7702  1537  7525  8035
                               1518  1517
    4788   2   1   1   0   1   1597  1596  6353  1590  1494  7603  6993  1498
                               1501  6988
    4789   2   1   1   0   1   6355  1587  5991  5993  6978  7007  7202  7664
                               7008  5967
    4790   2   1   1   0   1   5991   665   667  1588  5972   666  5971  7703
                               1538  1539
    4791   2   1   1   0   1    667  5993  1587   669  5966  7008  1540   668
                               5945  1541
    4792   2   1   1   0   1   6300   570   532   534  6724  7746  6532  6723
                               6725   533
    4793   2   1   1   0   1   6353  1586  1596  1587  6981  1493  7603  6979
                               1516  1481
    4794   2   1   1   0   1   6353   542  1585  1583  6972  1546  7567  6973
                               1552  1545
    4795   2   1   1   0   1    358     8  6003  5744   357  5785  5931  5722
                               5571  7804
    4796   2   1   1   0   1   6283   625  6332  1579  6446  7153  7142  6447
                               1560  7615
    4797   2   1   1   0   1    671  1582  5994   669  1547  7988  5964   670
                               1486  5965
    4798   2   1   1   0   1    311  6331   309  5549  7256  7098   310  5445
                               6795  5438
    4799   2   1   1   0   1     41   546  1479  6018   547  1454  1455  5796
                               8017  7944
    4800   2   1   1   0   1    544   546   582   563   545  7572  7437  1475
                               1476  5132
1

 ***** ANSYS - ENGINEERING ANALYSIS SYSTEM  RELEASE 15.0      *****
 ANSYS Academic Research                           
 00203145          VERSION=LINUX x64     10:48:11  OCT 01, 2014 CP=      4.792

                                                                               

 
    ELEM MAT TYP REL ESY SEC        NODES
 
    4801   2   1   1   0   1   1768   658  5988  6002  1735  5963  6503  7989
                               5934  5921
    4802   2   1   1   0   1   5998    62    64  5317  5953    63  5781  7523
                               5265  5264
    4803   2   1   1   0   1   6264  5089   576   578  7279  5055  6577  6886
                               5054   577
    4804   2   1   1   0   1    536   553   555   572  1466   554  1467  8034
                               5123  5110
    4805   2   1   1   0   1   6353  1585  1590  1596  7567  1513  6988  7603
                               1500  1501
    4806   2   1   1   0   1   6296  6009  5988  6298  7293  5899  6501  6510
                               7291  6512
    4807   2   1   1   0   1    584  1479   546  6018  7945  1454  8016  8006
                               7944  8017
    4808   2   1   1   0   1    576  6307   578  6370  6575  6887   577  8031
                               7382  7981
    4809   2   1   1   0   1   6359  6360   593  6346  7033  7032  7031  7611
                               7451  6931
    4810   2   1   1   0   1   6356   538  1590   540  7562  1530  6989  7601
                                539  1529
    4811   2   1   1   0   1    542   544   580   561   543  7987  7983  1473
                               1474  5130
    4812   2   1   1   0   1   6279  6002  6330  1779  6430  7113  7079  6875
                               7479  7080
    4813   2   1   1   0   1    536   572   534   553  8034  7947   535  1466
                               5123  1465
    4814   2   1   1   0   1   1779  6002  5987  1770  7479  5920  7107  1675
                               8042  8046
    4815   2   1   1   0   1   1770  1779  1769  5987  1675  1705  1718  8046
                               7107  7109
    4816   2   1   1   0   1   6002   658   660  1770  5934   659  5933  8042
                               1736  1737
    4817   2   1   1   0   1   6009  6299  6296  6002  7292  6518  7293  5898
                               6522  6524
    4818   2   1   1   0   1   6296  1777   486   488  6520  1714  7612  7448
                               1686   487
    4819   2   1   1   0   1    599   486   488  6296  7686   487  7449  6513
                               7612  7448
    4820   2   1   1   0   1   6319  6320  5751  5761  6685  6684  6671  6674
                               7339  5682
    4821   2   1   1   0   1   6347  5313  5323  5332  7637  5226  7889  7698
                               5237  5225
    4822   2   1   1   0   1   6304  5332  6229  5312  7697  7996  6542  6545
                               5238  6546
    4823   2   1   1   0   1    478   589   591   610  7745   590  7056  1946
                               5181  5184
    4824   2   1   1   0   1   6296   490   601   603  6499  8040  6507  6506
                               7609   602
    4825   2   1   1   0   1    570   568   532   551   569  6540  7746  5122
                               5108  1463
1

 ***** ANSYS - ENGINEERING ANALYSIS SYSTEM  RELEASE 15.0      *****
 ANSYS Academic Research                           
 00203145          VERSION=LINUX x64     10:48:11  OCT 01, 2014 CP=      4.793

                                                                               

 
    ELEM MAT TYP REL ESY SEC        NODES
 
    4826   2   1   1   0   1   6304  6347  5332  5313  7431  7698  7697  8026
                               7637  5237
    4827   2   1   1   0   1   6348  6242  6241  5327  7849  6180  6945  7963
                               7900  8041
    4828   2   1   1   0   1   6273  6010  6011  6008  6415  5881  6438  6625
                               5882  5880
    4829   2   1   1   0   1   6370   576   540   578  8031  8032  7707  7981
                                577  7984
    4830   2   1   1   0   1   6298  6009  6008   325  7291  5893  6623  7433
                               5891  5890
    4831   2   1   1   0   1    724   705   686   688  4956  2148  7727  7725
                               2149   687
    4832   2   1   1   0   1   6279  1766  1778  1767  6870  1708  6867  7078
                               1679  1707
    4833   2   1   1   0   1   6254  5766   194   447  7842  5567  7924  6107
                               5566  5641
    4834   2   1   1   0   1   6343  5743  5750   710  7977  5726  7653  7649
                               7951  7957
    4835   2   1   1   0   1   6334   680   950   682  7737   903  7539  7738
                                681   902
    4836   2   1   1   0   1   6333   952   676   948  6833   899  7239  7237
                                877   896
    4837   2   1   1   0   1    449   146   198   196  6096  7970  5638  5637
                               7767   197
    4838   2   1   1   0   1    413   339   380   341  7978  5830  5599  8033
                                340  5838
    4839   2   1   1   0   1   6286  6248  6253  6230  7208  6134  6460  7812
                               6156  6133
    4840   2   1   1   0   1    943   688    10  6230   919   689   844  7961
                               7811  6222
    4841   2   1   1   0   1    246   376   335   244  7845  5835  5398   245
                               7828  5397
    4842   2   1   1   0   1    722   684   686   703  7935   685  7840  4954
                               2146  2147
    4843   2   1   1   0   1    343   382   409   384  5840  5596  7971  5841
                                383  5595
    4844   2   1   1   0   1    409   343   411   382  7971  8011   410  5596
                               5840  5597
    4845   2   1   1   0   1   4957  2152   691    12  7953  2128  4940  4941
                               2130   690
    4846   2   1   1   0   1    710  5750    29  5743  7957  5725   709  7951
                               5726  5741
    4847   2   1   1   0   1   6333  6341  5760  6336  7541  7023  6822  6828
                               7028  7020
    4848   2   1   1   0   1   6286   943  6230   688  7621  7961  7812  7810
                                919  7811
    4849   2   1   1   0   1   2151    27  4958   707  2134  4938  7959  2133
                                708  4936
    4850   2   1   1   0   1    372   242   421  6013  7819  6102  5630  5859
                               6562  6692
1

 ***** ANSYS - ENGINEERING ANALYSIS SYSTEM  RELEASE 15.0      *****
 ANSYS Academic Research                           
 00203145          VERSION=LINUX x64     10:48:11  OCT 01, 2014 CP=      4.793

                                                                               

 
    ELEM MAT TYP REL ESY SEC        NODES
 
    4851   2   1   1   0   1   5104   225  5743    29  4968  5742  7950  4970
                                226  5741
    4852   2   1   1   0   1     58    60  6003  5319    59  5789  5926  5261
                               5260  7823
    4853   2   1   1   0   1    162   287   465   289  5382  7817  6086  5383
                                288  7837
    4854   2   1   1   0   1    126   128  5096  5989   127  5035  5034  5962
                               5975  6649
    4855   2   1   1   0   1    465   287   216   214  7817  5813  5621  5618
                               5816   215
    4856   2   1   1   0   1    295   457   208   459  7798  5613  5821  7799
                                458  5612
    4857   2   1   1   0   1   6334   680   951   950  7737   900  7536  7539
                                903   879
    4858   2   1   1   0   1   6302  5544  5543  5536  6710  5506  6713  6534
                               5507  5508
    4859   2   1   1   0   1   1582   544   546  6354  1554   545  1553  7985
                               7358  7571
    4860   2   1   1   0   1   6341   959   942   957  7533   863  6894  7530
                                857   861
    4861   2   1   1   0   1    563   584   546   582  5131  8016  1476  5132
                                583  7572
    4862   2   1   1   0   1   6296   490   488   601  6499   489  7448  6507
                               8040  7450
    4863   2   1   1   0   1   6273  6274   427  6011  6436  7172  7627  6438
                               6437  7695
    4864   2   1   1   0   1    262   392  6255   353  7997  6809  6094  5415
                               5848  7771
    4865   2   1   1   0   1    392   351   262   401  5786  5414  7997  5626
                               7843  6100
    4866   2   1   1   0   1   6259    26   726  4958  6039   727  7908  7958
                               4939  4937
    4867   2   1   1   0   1    731   729  5744  5319   730  8025  7717  5297
                               5296  7862
    4868   2   1   1   0   1   6317   517   515   731  6666   516  6665  6678
                               7768  7941
    4869   2   1   1   0   1   6254   445  6251  5766  6109  6116  6108  7842
                               5645  7658
    4870   2   1   1   0   1    360   362  5758  6003   361  5671  5672  5932
                               5927  7968
    4871   2   1   1   0   1   6300   534  6302  6301  6723  6727  6530  6527
                               6705  6716
    4872   2   1   1   0   1   6372  5998  5317  6320  7415  7523  7521  7391
                               7436  7761
    4873   2   1   1   0   1   5758   362  6010  6003  5671  5894  6418  7968
                               5927  5778
    4874   2   1   1   0   1   5545  5548  6339  5555  5483  7198  6861  5466
                               5464  7196
    4875   2   1   1   0   1   6310   570  5093   568  6741  5046  6742  6719
                                569  5047
1

 ***** ANSYS - ENGINEERING ANALYSIS SYSTEM  RELEASE 15.0      *****
 ANSYS Academic Research                           
 00203145          VERSION=LINUX x64     10:48:11  OCT 01, 2014 CP=      4.793

                                                                               

 
    ELEM MAT TYP REL ESY SEC        NODES
 
    4876   2   1   1   0   1   6364  1580  1593  1581  7215  1521  7218  7150
                               1522  1520
    4877   2   1   1   0   1   6310  6238  6247  6239  6738  6168  7357  7442
                               6183  6167
    4878   2   1   1   0   1    729  5751   731  5744  6680  6686   730  8025
                               5723  7717
    4879   2   1   1   0   1    366  6011   425   427  5876  6610  5644  5647
                               7695   426
    4880   2   1   1   0   1   6314  6273   425  6011  6616  7696  6609  6608
                               6438  6610
    4881   2   1   1   0   1   5334  5339  5319  5744  5195  5197  5217  7803
                               7802  7862
    4882   2   1   1   0   1   6308   574  6311   536  7084  7714  7681  7086
                               7085  7748
    4883   2   1   1   0   1    188  5759  6343  5743  5669  7674  7897  5696
                               5691  7977
    4884   2   1   1   0   1   6296  6297   599  6298  6504  6514  6513  6510
                               6509  7295
    4885   2   1   1   0   1   6345  6347  5329  6240  6934  6933  6932  7251
                               7326  7965
    4886   2   1   1   0   1   5339  5744    23   729  7802  5740  5200  5198
                               8025   728
