
 PRINT DOF  NODAL SOLUTION PER NODE
1

 ***** ANSYS - ENGINEERING ANALYSIS SYSTEM  RELEASE 15.0      *****
 ANSYS Academic Research                           
 00203145          VERSION=LINUX x64     10:48:11  OCT 01, 2014 CP=      4.518

                                                                               

 
  ***** POST1 NODAL DEGREE OF FREEDOM LISTING *****                            
 
  LOAD STEP=     1  SUBSTEP=     1                                             
   TIME=    1.0000      LOAD CASE=   0                                         
 
    NODE      VOLT  
       1   649.86    
       2   499.85    
       3   700.00    
       4   700.00    
       5   700.00    
       6   650.34    
       7   700.00    
       8   700.00    
       9   700.00    
      10   349.07    
      11   349.42    
      12   300.00    
      13   700.00    
      14   300.00    
      15   700.00    
      16   300.00    
      17   700.00    
      18   700.00    
      19   300.00    
      20   300.00    
      21   300.00    
      22   300.00    
      23   700.00    
      24   300.00    
      25   0.0000    
      26   300.00    
      27   300.00    
      28   0.0000    
      29   300.00    
      30   1000.0    
      31   1000.0    
      32   1000.0    
      33   1000.0    
      34   0.0000    
      35   0.0000    
      36   650.28    
      37   650.01    
      38   500.03    
      39   499.90    
1

 ***** ANSYS - ENGINEERING ANALYSIS SYSTEM  RELEASE 15.0      *****
 ANSYS Academic Research                           
 00203145          VERSION=LINUX x64     10:48:11  OCT 01, 2014 CP=      4.520

                                                                               

 
  ***** POST1 NODAL DEGREE OF FREEDOM LISTING *****                            
 
  LOAD STEP=     1  SUBSTEP=     1                                             
   TIME=    1.0000      LOAD CASE=   0                                         
 
    NODE      VOLT  
      40   349.52    
      41   349.08    
      42   300.00    
      43   700.00    
      44   499.96    
      45   634.77    
      46   619.53    
      47   597.88    
      48   577.62    
      49   554.54    
      50   534.30    
      51   521.84    
      52   511.23    
      53   504.49    
      54   700.00    
      55   700.00    
      56   700.00    
      57   700.00    
      58   700.00    
      59   700.00    
      60   700.00    
      61   700.00    
      62   700.00    
      63   700.00    
      64   700.00    
      65   700.00    
      66   700.00    
      67   700.00    
      68   700.00    
      69   700.00    
      70   495.24    
      71   488.55    
      72   477.91    
      73   465.44    
      74   445.22    
      75   422.24    
      76   401.82    
      77   380.02    
      78   364.62    
1

 ***** ANSYS - ENGINEERING ANALYSIS SYSTEM  RELEASE 15.0      *****
 ANSYS Academic Research                           
 00203145          VERSION=LINUX x64     10:48:11  OCT 01, 2014 CP=      4.520

                                                                               

 
  ***** POST1 NODAL DEGREE OF FREEDOM LISTING *****                            
 
  LOAD STEP=     1  SUBSTEP=     1                                             
   TIME=    1.0000      LOAD CASE=   0                                         
 
    NODE      VOLT  
      79   667.83    
      80   637.24    
      81   600.71    
      82   566.77    
      83   533.35    
      84   500.71    
      85   467.32    
      86   433.17    
      87   399.22    
      88   362.69    
      89   332.15    
      90   332.13    
      91   362.90    
      92   399.13    
      93   432.98    
      94   466.45    
      95   499.12    
      96   532.52    
      97   566.66    
      98   600.66    
      99   637.23    
     100   667.80    
     101   700.00    
     102   700.00    
     103   700.00    
     104   700.00    
     105   700.00    
     106   700.00    
     107   700.00    
     108   700.00    
     109   700.00    
     110   700.00    
     111   700.00    
     112   700.00    
     113   700.00    
     114   300.00    
     115   300.00    
     116   300.00    
     117   300.00    
1

 ***** ANSYS - ENGINEERING ANALYSIS SYSTEM  RELEASE 15.0      *****
 ANSYS Academic Research                           
 00203145          VERSION=LINUX x64     10:48:11  OCT 01, 2014 CP=      4.520

                                                                               

 
  ***** POST1 NODAL DEGREE OF FREEDOM LISTING *****                            
 
  LOAD STEP=     1  SUBSTEP=     1                                             
   TIME=    1.0000      LOAD CASE=   0                                         
 
    NODE      VOLT  
     118   300.00    
     119   300.00    
     120   300.00    
     121   300.00    
     122   300.00    
     123   300.00    
     124   300.00    
     125   300.00    
     126   300.00    
     127   300.00    
     128   300.00    
     129   300.00    
     130   700.00    
     131   700.00    
     132   700.00    
     133   304.69    
     134   308.50    
     135   311.98    
     136   314.01    
     137   314.98    
     138   314.74    
     139   313.47    
     140   311.47    
     141   308.27    
     142   304.75    
     143   299.43    
     144   294.12    
     145   286.63    
     146   279.14    
     147   269.10    
     148   259.05    
     149   248.26    
     150   237.47    
     151   226.62    
     152   215.77    
     153   204.91    
     154   194.06    
     155   181.44    
     156   168.83    
1

 ***** ANSYS - ENGINEERING ANALYSIS SYSTEM  RELEASE 15.0      *****
 ANSYS Academic Research                           
 00203145          VERSION=LINUX x64     10:48:11  OCT 01, 2014 CP=      4.520

                                                                               

 
  ***** POST1 NODAL DEGREE OF FREEDOM LISTING *****                            
 
  LOAD STEP=     1  SUBSTEP=     1                                             
   TIME=    1.0000      LOAD CASE=   0                                         
 
    NODE      VOLT  
     157   157.98    
     158   147.12    
     159   136.27    
     160   125.42    
     161   114.56    
     162   103.71    
     163   92.855    
     164   82.001    
     165   71.148    
     166   60.294    
     167   49.440    
     168   38.587    
     169   27.733    
     170   16.880    
     171   8.4398    
     172   300.00    
     173   300.00    
     174   300.00    
     175   300.00    
     176   300.00    
     177   300.00    
     178   300.00    
     179   300.00    
     180   300.00    
     181   300.00    
     182   300.00    
     183   300.00    
     184   300.00    
     185   304.69    
     186   308.46    
     187   311.87    
     188   313.91    
     189   315.14    
     190   314.92    
     191   313.58    
     192   311.51    
     193   308.17    
     194   304.51    
     195   299.36    
1

 ***** ANSYS - ENGINEERING ANALYSIS SYSTEM  RELEASE 15.0      *****
 ANSYS Academic Research                           
 00203145          VERSION=LINUX x64     10:48:11  OCT 01, 2014 CP=      4.522

                                                                               

 
  ***** POST1 NODAL DEGREE OF FREEDOM LISTING *****                            
 
  LOAD STEP=     1  SUBSTEP=     1                                             
   TIME=    1.0000      LOAD CASE=   0                                         
 
    NODE      VOLT  
     196   294.13    
     197   286.64    
     198   279.14    
     199   269.10    
     200   259.05    
     201   248.26    
     202   237.47    
     203   226.62    
     204   215.77    
     205   204.91    
     206   194.06    
     207   181.44    
     208   168.83    
     209   157.98    
     210   147.12    
     211   136.27    
     212   125.42    
     213   114.56    
     214   103.71    
     215   92.855    
     216   82.001    
     217   71.148    
     218   60.294    
     219   49.440    
     220   38.587    
     221   27.733    
     222   16.880    
     223   8.4398    
     224   300.00    
     225   300.00    
     226   300.00    
     227   695.33    
     228   691.53    
     229   688.01    
     230   685.92    
     231   684.68    
     232   684.88    
     233   686.25    
     234   688.32    
1

 ***** ANSYS - ENGINEERING ANALYSIS SYSTEM  RELEASE 15.0      *****
 ANSYS Academic Research                           
 00203145          VERSION=LINUX x64     10:48:11  OCT 01, 2014 CP=      4.522

                                                                               

 
  ***** POST1 NODAL DEGREE OF FREEDOM LISTING *****                            
 
  LOAD STEP=     1  SUBSTEP=     1                                             
   TIME=    1.0000      LOAD CASE=   0                                         
 
    NODE      VOLT  
     235   691.61    
     236   695.18    
     237   700.35    
     238   705.65    
     239   713.16    
     240   720.68    
     241   730.73    
     242   740.78    
     243   751.58    
     244   762.38    
     245   773.24    
     246   784.10    
     247   794.96    
     248   805.82    
     249   818.44    
     250   831.06    
     251   841.92    
     252   852.78    
     253   863.65    
     254   874.51    
     255   885.37    
     256   896.23    
     257   907.09    
     258   917.95    
     259   928.81    
     260   939.67    
     261   950.53    
     262   961.39    
     263   972.25    
     264   983.11    
     265   991.55    
     266   1000.0    
     267   1000.0    
     268   1000.0    
     269   1000.0    
     270   1000.0    
     271   1000.0    
     272   0.0000    
     273   0.0000    
1

 ***** ANSYS - ENGINEERING ANALYSIS SYSTEM  RELEASE 15.0      *****
 ANSYS Academic Research                           
 00203145          VERSION=LINUX x64     10:48:11  OCT 01, 2014 CP=      4.522

                                                                               

 
  ***** POST1 NODAL DEGREE OF FREEDOM LISTING *****                            
 
  LOAD STEP=     1  SUBSTEP=     1                                             
   TIME=    1.0000      LOAD CASE=   0                                         
 
    NODE      VOLT  
     274   0.0000    
     275   0.0000    
     276   0.0000    
     277   0.0000    
     278   8.4398    
     279   16.880    
     280   26.947    
     281   37.014    
     282   47.081    
     283   57.149    
     284   68.002    
     285   78.856    
     286   89.710    
     287   100.56    
     288   111.42    
     289   122.27    
     290   133.12    
     291   143.98    
     292   154.83    
     293   165.68    
     294   176.54    
     295   187.39    
     296   198.25    
     297   209.10    
     298   219.95    
     299   230.80    
     300   241.56    
     301   252.32    
     302   262.46    
     303   272.61    
     304   281.20    
     305   289.80    
     306   296.37    
     307   303.03    
     308   308.54    
     309   315.03    
     310   322.52    
     311   333.55    
     312   346.37    
1

 ***** ANSYS - ENGINEERING ANALYSIS SYSTEM  RELEASE 15.0      *****
 ANSYS Academic Research                           
 00203145          VERSION=LINUX x64     10:48:11  OCT 01, 2014 CP=      4.524

                                                                               

 
  ***** POST1 NODAL DEGREE OF FREEDOM LISTING *****                            
 
  LOAD STEP=     1  SUBSTEP=     1                                             
   TIME=    1.0000      LOAD CASE=   0                                         
 
    NODE      VOLT  
     313   366.11    
     314   386.00    
     315   410.49    
     316   431.83    
     317   454.27    
     318   473.92    
     319   493.36    
     320   514.42    
     321   535.77    
     322   565.29    
     323   593.42    
     324   628.23    
     325   652.38    
     326   671.32    
     327   682.03    
     328   692.62    
     329   700.52    
     330   711.58    
     331   722.46    
     332   733.32    
     333   744.18    
     334   755.04    
     335   765.90    
     336   776.76    
     337   787.62    
     338   798.48    
     339   809.34    
     340   820.20    
     341   831.06    
     342   841.92    
     343   852.78    
     344   863.65    
     345   874.51    
     346   885.37    
     347   896.23    
     348   907.09    
     349   917.95    
     350   928.81    
     351   939.67    
1

 ***** ANSYS - ENGINEERING ANALYSIS SYSTEM  RELEASE 15.0      *****
 ANSYS Academic Research                           
 00203145          VERSION=LINUX x64     10:48:11  OCT 01, 2014 CP=      4.524

                                                                               

 
  ***** POST1 NODAL DEGREE OF FREEDOM LISTING *****                            
 
  LOAD STEP=     1  SUBSTEP=     1                                             
   TIME=    1.0000      LOAD CASE=   0                                         
 
    NODE      VOLT  
     352   950.53    
     353   961.39    
     354   972.25    
     355   983.11    
     356   991.55    
     357   695.25    
     358   691.43    
     359   687.94    
     360   685.78    
     361   684.67    
     362   685.08    
     363   686.43    
     364   688.33    
     365   691.65    
     366   695.12    
     367   700.38    
     368   705.67    
     369   713.18    
     370   720.68    
     371   730.73    
     372   740.78    
     373   751.58    
     374   762.38    
     375   773.24    
     376   784.10    
     377   794.96    
     378   805.82    
     379   818.44    
     380   831.06    
     381   841.92    
     382   852.78    
     383   863.65    
     384   874.51    
     385   885.37    
     386   896.23    
     387   907.09    
     388   917.95    
     389   928.81    
     390   939.67    
1

 ***** ANSYS - ENGINEERING ANALYSIS SYSTEM  RELEASE 15.0      *****
 ANSYS Academic Research                           
 00203145          VERSION=LINUX x64     10:48:11  OCT 01, 2014 CP=      4.524

                                                                               

 
  ***** POST1 NODAL DEGREE OF FREEDOM LISTING *****                            
 
  LOAD STEP=     1  SUBSTEP=     1                                             
   TIME=    1.0000      LOAD CASE=   0                                         
 
    NODE      VOLT  
     391   950.53    
     392   961.39    
     393   972.25    
     394   983.11    
     395   991.55    
     396   991.55    
     397   983.11    
     398   973.01    
     399   962.91    
     400   952.81    
     401   942.71    
     402   931.85    
     403   920.99    
     404   910.13    
     405   899.26    
     406   888.40    
     407   877.54    
     408   866.68    
     409   855.82    
     410   844.96    
     411   834.10    
     412   823.24    
     413   812.38    
     414   801.52    
     415   790.66    
     416   779.80    
     417   768.94    
     418   758.18    
     419   747.42    
     420   737.27    
     421   727.11    
     422   718.50    
     423   709.86    
     424   703.33    
     425   696.72    
     426   690.94    
     427   684.42    
     428   677.49    
     429   666.62    
1

 ***** ANSYS - ENGINEERING ANALYSIS SYSTEM  RELEASE 15.0      *****
 ANSYS Academic Research                           
 00203145          VERSION=LINUX x64     10:48:11  OCT 01, 2014 CP=      4.525

                                                                               

 
  ***** POST1 NODAL DEGREE OF FREEDOM LISTING *****                            
 
  LOAD STEP=     1  SUBSTEP=     1                                             
   TIME=    1.0000      LOAD CASE=   0                                         
 
    NODE      VOLT  
     430   653.75    
     431   633.86    
     432   613.84    
     433   589.33    
     434   568.00    
     435   545.56    
     436   525.89    
     437   506.44    
     438   485.32    
     439   463.79    
     440   434.38    
     441   406.44    
     442   371.48    
     443   347.73    
     444   328.62    
     445   317.44    
     446   307.44    
     447   299.19    
     448   288.24    
     449   277.37    
     450   266.51    
     451   255.66    
     452   244.81    
     453   233.95    
     454   223.10    
     455   212.24    
     456   201.39    
     457   190.54    
     458   179.68    
     459   168.83    
     460   157.98    
     461   147.12    
     462   136.27    
     463   125.42    
     464   114.56    
     465   103.71    
     466   92.855    
     467   82.001    
     468   71.148    
1

 ***** ANSYS - ENGINEERING ANALYSIS SYSTEM  RELEASE 15.0      *****
 ANSYS Academic Research                           
 00203145          VERSION=LINUX x64     10:48:11  OCT 01, 2014 CP=      4.526

                                                                               

 
  ***** POST1 NODAL DEGREE OF FREEDOM LISTING *****                            
 
  LOAD STEP=     1  SUBSTEP=     1                                             
   TIME=    1.0000      LOAD CASE=   0                                         
 
    NODE      VOLT  
     469   60.294    
     470   49.440    
     471   38.587    
     472   27.733    
     473   16.880    
     474   8.4398    
     475   649.92    
     476   649.49    
     477   649.93    
     478   651.18    
     479   650.50    
     480   650.71    
     481   651.92    
     482   651.09    
     483   650.46    
     484   650.65    
     485   650.12    
     486   650.07    
     487   649.14    
     488   649.26    
     489   649.94    
     490   650.78    
     491   650.52    
     492   499.81    
     493   499.67    
     494   499.83    
     495   499.91    
     496   499.89    
     497   499.89    
     498   499.88    
     499   499.84    
     500   499.89    
     501   499.98    
     502   499.90    
     503   499.73    
     504   499.80    
     505   635.54    
     506   619.65    
     507   598.35    
1

 ***** ANSYS - ENGINEERING ANALYSIS SYSTEM  RELEASE 15.0      *****
 ANSYS Academic Research                           
 00203145          VERSION=LINUX x64     10:48:11  OCT 01, 2014 CP=      4.526

                                                                               

 
  ***** POST1 NODAL DEGREE OF FREEDOM LISTING *****                            
 
  LOAD STEP=     1  SUBSTEP=     1                                             
   TIME=    1.0000      LOAD CASE=   0                                         
 
    NODE      VOLT  
     508   578.43    
     509   555.09    
     510   534.63    
     511   521.98    
     512   511.15    
     513   504.59    
     514   649.94    
     515   649.41    
     516   650.02    
     517   649.78    
     518   650.08    
     519   650.44    
     520   650.19    
     521   650.90    
     522   650.42    
     523   650.79    
     524   649.78    
     525   649.60    
     526   649.72    
     527   650.14    
     528   649.80    
     529   650.25    
     530   650.32    
     531   349.92    
     532   350.41    
     533   350.07    
     534   348.90    
     535   349.08    
     536   349.04    
     537   349.77    
     538   349.34    
     539   349.63    
     540   349.42    
     541   349.68    
     542   348.60    
     543   349.46    
     544   349.28    
     545   349.79    
     546   349.53    
1

 ***** ANSYS - ENGINEERING ANALYSIS SYSTEM  RELEASE 15.0      *****
 ANSYS Academic Research                           
 00203145          VERSION=LINUX x64     10:48:11  OCT 01, 2014 CP=      4.526

                                                                               

 
  ***** POST1 NODAL DEGREE OF FREEDOM LISTING *****                            
 
  LOAD STEP=     1  SUBSTEP=     1                                             
   TIME=    1.0000      LOAD CASE=   0                                         
 
    NODE      VOLT  
     547   348.52    
     548   300.00    
     549   300.00    
     550   300.00    
     551   300.00    
     552   300.00    
     553   300.00    
     554   300.00    
     555   300.00    
     556   300.00    
     557   300.00    
     558   300.00    
     559   300.00    
     560   300.00    
     561   300.00    
     562   300.00    
     563   300.00    
     564   300.00    
     565   300.00    
     566   300.00    
     567   300.00    
     568   300.00    
     569   300.00    
     570   300.00    
     571   300.00    
     572   300.00    
     573   300.00    
     574   300.00    
     575   300.00    
     576   300.00    
     577   300.00    
     578   300.00    
     579   300.00    
     580   300.00    
     581   300.00    
     582   300.00    
     583   300.00    
     584   300.00    
     585   300.00    
1

 ***** ANSYS - ENGINEERING ANALYSIS SYSTEM  RELEASE 15.0      *****
 ANSYS Academic Research                           
 00203145          VERSION=LINUX x64     10:48:11  OCT 01, 2014 CP=      4.528

                                                                               

 
  ***** POST1 NODAL DEGREE OF FREEDOM LISTING *****                            
 
  LOAD STEP=     1  SUBSTEP=     1                                             
   TIME=    1.0000      LOAD CASE=   0                                         
 
    NODE      VOLT  
     586   700.00    
     587   700.00    
     588   700.00    
     589   700.00    
     590   700.00    
     591   700.00    
     592   700.00    
     593   700.00    
     594   700.00    
     595   700.00    
     596   700.00    
     597   700.00    
     598   700.00    
     599   700.00    
     600   700.00    
     601   700.00    
     602   700.00    
     603   700.00    
     604   700.00    
     605   700.00    
     606   700.00    
     607   700.00    
     608   700.00    
     609   700.00    
     610   700.00    
     611   700.00    
     612   700.00    
     613   700.00    
     614   700.00    
     615   700.00    
     616   700.00    
     617   700.00    
     618   700.00    
     619   700.00    
     620   700.00    
     621   700.00    
     622   700.00    
     623   700.00    
     624   495.30    
1

 ***** ANSYS - ENGINEERING ANALYSIS SYSTEM  RELEASE 15.0      *****
 ANSYS Academic Research                           
 00203145          VERSION=LINUX x64     10:48:11  OCT 01, 2014 CP=      4.528

                                                                               

 
  ***** POST1 NODAL DEGREE OF FREEDOM LISTING *****                            
 
  LOAD STEP=     1  SUBSTEP=     1                                             
   TIME=    1.0000      LOAD CASE=   0                                         
 
    NODE      VOLT  
     625   488.58    
     626   477.86    
     627   465.25    
     628   444.76    
     629   421.38    
     630   401.55    
     631   380.18    
     632   364.29    
     633   499.86    
     634   499.78    
     635   499.84    
     636   499.87    
     637   499.89    
     638   499.90    
     639   499.89    
     640   499.87    
     641   499.87    
     642   499.83    
     643   499.90    
     644   500.06    
     645   499.96    
     646   635.53    
     647   619.66    
     648   598.27    
     649   578.36    
     650   555.04    
     651   534.54    
     652   521.94    
     653   511.23    
     654   504.49    
     655   634.75    
     656   619.41    
     657   597.92    
     658   577.51    
     659   554.54    
     660   534.30    
     661   521.82    
     662   511.22    
     663   504.52    
1

 ***** ANSYS - ENGINEERING ANALYSIS SYSTEM  RELEASE 15.0      *****
 ANSYS Academic Research                           
 00203145          VERSION=LINUX x64     10:48:11  OCT 01, 2014 CP=      4.528

                                                                               

 
  ***** POST1 NODAL DEGREE OF FREEDOM LISTING *****                            
 
  LOAD STEP=     1  SUBSTEP=     1                                             
   TIME=    1.0000      LOAD CASE=   0                                         
 
    NODE      VOLT  
     664   495.28    
     665   488.56    
     666   477.95    
     667   465.49    
     668   445.23    
     669   422.11    
     670   401.91    
     671   380.18    
     672   364.91    
     673   349.95    
     674   350.63    
     675   348.75    
     676   347.97    
     677   348.24    
     678   348.35    
     679   349.52    
     680   349.08    
     681   349.06    
     682   349.09    
     683   349.78    
     684   349.51    
     685   349.48    
     686   349.36    
     687   349.72    
     688   349.28    
     689   349.36    
     690   300.00    
     691   300.00    
     692   300.00    
     693   300.00    
     694   300.00    
     695   300.00    
     696   300.00    
     697   300.00    
     698   300.00    
     699   300.00    
     700   300.00    
     701   300.00    
     702   300.00    
1

 ***** ANSYS - ENGINEERING ANALYSIS SYSTEM  RELEASE 15.0      *****
 ANSYS Academic Research                           
 00203145          VERSION=LINUX x64     10:48:11  OCT 01, 2014 CP=      4.530

                                                                               

 
  ***** POST1 NODAL DEGREE OF FREEDOM LISTING *****                            
 
  LOAD STEP=     1  SUBSTEP=     1                                             
   TIME=    1.0000      LOAD CASE=   0                                         
 
    NODE      VOLT  
     703   300.00    
     704   300.00    
     705   300.00    
     706   300.00    
     707   300.00    
     708   300.00    
     709   300.00    
     710   300.00    
     711   300.00    
     712   300.00    
     713   300.00    
     714   300.00    
     715   300.00    
     716   300.00    
     717   300.00    
     718   300.00    
     719   300.00    
     720   300.00    
     721   300.00    
     722   300.00    
     723   300.00    
     724   300.00    
     725   300.00    
     726   300.00    
     727   300.00    
     728   700.00    
     729   700.00    
     730   700.00    
     731   700.00    
     732   700.00    
     733   700.00    
     734   700.00    
     735   700.00    
     736   700.00    
     737   700.00    
     738   700.00    
     739   700.00    
     740   700.00    
     741   700.00    
1

 ***** ANSYS - ENGINEERING ANALYSIS SYSTEM  RELEASE 15.0      *****
 ANSYS Academic Research                           
 00203145          VERSION=LINUX x64     10:48:11  OCT 01, 2014 CP=      4.530

                                                                               

 
  ***** POST1 NODAL DEGREE OF FREEDOM LISTING *****                            
 
  LOAD STEP=     1  SUBSTEP=     1                                             
   TIME=    1.0000      LOAD CASE=   0                                         
 
    NODE      VOLT  
     742   700.00    
     743   700.00    
     744   700.00    
     745   700.00    
     746   700.00    
     747   700.00    
     748   700.00    
     749   700.00    
     750   700.00    
     751   700.00    
     752   700.00    
     753   700.00    
     754   700.00    
     755   700.00    
     756   700.00    
     757   700.00    
     758   700.00    
     759   700.00    
     760   700.00    
     761   700.00    
     762   700.00    
     763   700.00    
     764   700.00    
     765   700.00    
     766   495.25    
     767   488.51    
     768   477.75    
     769   465.12    
     770   444.62    
     771   421.23    
     772   401.35    
     773   380.00    
     774   364.22    
     775   700.00    
     776   700.00    
     777   700.00    
     778   700.00    
     779   700.00    
     780   700.00    
1

 ***** ANSYS - ENGINEERING ANALYSIS SYSTEM  RELEASE 15.0      *****
 ANSYS Academic Research                           
 00203145          VERSION=LINUX x64     10:48:11  OCT 01, 2014 CP=      4.530

                                                                               

 
  ***** POST1 NODAL DEGREE OF FREEDOM LISTING *****                            
 
  LOAD STEP=     1  SUBSTEP=     1                                             
   TIME=    1.0000      LOAD CASE=   0                                         
 
    NODE      VOLT  
     781   700.00    
     782   700.00    
     783   700.00    
     784   700.00    
     785   700.00    
     786   700.00    
     787   700.00    
     788   700.00    
     789   700.00    
     790   700.00    
     791   300.00    
     792   300.00    
     793   300.00    
     794   300.00    
     795   300.00    
     796   300.00    
     797   300.00    
     798   300.00    
     799   300.00    
     800   300.00    
     801   300.00    
     802   300.00    
     803   300.00    
     804   300.00    
     805   300.00    
     806   300.00    
     807   300.00    
     808   300.00    
     809   300.00    
     810   300.00    
     811   300.00    
     812   300.00    
     813   300.00    
     814   300.00    
     815   300.00    
     816   300.00    
     817   300.00    
     818   300.00    
     819   300.00    
1

 ***** ANSYS - ENGINEERING ANALYSIS SYSTEM  RELEASE 15.0      *****
 ANSYS Academic Research                           
 00203145          VERSION=LINUX x64     10:48:11  OCT 01, 2014 CP=      4.530

                                                                               

 
  ***** POST1 NODAL DEGREE OF FREEDOM LISTING *****                            
 
  LOAD STEP=     1  SUBSTEP=     1                                             
   TIME=    1.0000      LOAD CASE=   0                                         
 
    NODE      VOLT  
     820   300.00    
     821   300.00    
     822   300.00    
     823   700.00    
     824   700.00    
     825   700.00    
     826   700.00    
     827   700.00    
     828   700.00    
     829   700.00    
     830   700.00    
     831   700.00    
     832   700.00    
     833   700.00    
     834   700.00    
     835   700.00    
     836   700.00    
     837   700.00    
     838   700.00    
     839   478.41    
     840   414.70    
     841   486.27    
     842   484.31    
     843   401.64    
     844   363.68    
     845   366.90    
     846   395.93    
     847   487.89    
     848   487.86    
     849   493.25    
     850   491.45    
     851   497.38    
     852   497.37    
     853   494.88    
     854   497.80    
     855   491.94    
     856   497.75    
     857   437.46    
     858   428.43    
1

 ***** ANSYS - ENGINEERING ANALYSIS SYSTEM  RELEASE 15.0      *****
 ANSYS Academic Research                           
 00203145          VERSION=LINUX x64     10:48:11  OCT 01, 2014 CP=      4.532

                                                                               

 
  ***** POST1 NODAL DEGREE OF FREEDOM LISTING *****                            
 
  LOAD STEP=     1  SUBSTEP=     1                                             
   TIME=    1.0000      LOAD CASE=   0                                         
 
    NODE      VOLT  
     859   413.03    
     860   417.97    
     861   462.49    
     862   438.19    
     863   452.58    
     864   432.73    
     865   405.47    
     866   405.34    
     867   391.95    
     868   396.17    
     869   426.03    
     870   444.00    
     871   420.73    
     872   462.73    
     873   451.39    
     874   465.32    
     875   463.01    
     876   436.17    
     877   393.61    
     878   392.58    
     879   383.76    
     880   379.31    
     881   452.68    
     882   460.44    
     883   412.81    
     884   430.41    
     885   466.33    
     886   479.14    
     887   476.67    
     888   487.75    
     889   487.10    
     890   468.42    
     891   485.06    
     892   473.76    
     893   460.48    
     894   439.54    
     895   420.25    
     896   367.42    
     897   367.10    
1

 ***** ANSYS - ENGINEERING ANALYSIS SYSTEM  RELEASE 15.0      *****
 ANSYS Academic Research                           
 00203145          VERSION=LINUX x64     10:48:11  OCT 01, 2014 CP=      4.532

                                                                               

 
  ***** POST1 NODAL DEGREE OF FREEDOM LISTING *****                            
 
  LOAD STEP=     1  SUBSTEP=     1                                             
   TIME=    1.0000      LOAD CASE=   0                                         
 
    NODE      VOLT  
     898   374.73    
     899   374.70    
     900   365.94    
     901   365.80    
     902   366.13    
     903   366.89    
     904   362.64    
     905   473.01    
     906   484.50    
     907   382.60    
     908   403.78    
     909   398.40    
     910   399.96    
     911   379.39    
     912   362.00    
     913   379.80    
     914   381.62    
     915   484.86    
     916   485.16    
     917   365.57    
     918   365.29    
     919   363.32    
     920   363.60    
     921   484.35    
     922   485.24    
     923   492.85    
     924   492.30    
     925   493.44    
     926   492.91    
     927   497.71    
     928   497.73    
     929   497.27    
     930   497.30    
     931   496.60    
     932   496.60    
     933   496.81    
     934   496.86    
     935   496.60    
     936   496.65    
1

 ***** ANSYS - ENGINEERING ANALYSIS SYSTEM  RELEASE 15.0      *****
 ANSYS Academic Research                           
 00203145          VERSION=LINUX x64     10:48:11  OCT 01, 2014 CP=      4.532

                                                                               

 
  ***** POST1 NODAL DEGREE OF FREEDOM LISTING *****                            
 
  LOAD STEP=     1  SUBSTEP=     1                                             
   TIME=    1.0000      LOAD CASE=   0                                         
 
    NODE      VOLT  
     937   491.85    
     938   492.36    
     939   491.76    
     940   493.59    
     941   494.68    
     942   475.14    
     943   378.99    
     944   382.64    
     945   476.59    
     946   374.50    
     947   416.14    
     948   384.15    
     949   479.42    
     950   383.04    
     951   383.02    
     952   400.75    
     953   454.24    
     954   480.85    
     955   438.12    
     956   448.54    
     957   446.92    
     958   408.07    
     959   425.78    
     960   494.85    
     961   493.83    
     962   664.31    
     963   334.44    
     964   622.52    
     965   566.06    
     966   431.95    
     967   499.69    
     968   318.97    
     969   673.24    
     970   385.31    
     971   612.58    
     972   386.04    
     973   511.09    
     974   484.16    
     975   522.77    
1

 ***** ANSYS - ENGINEERING ANALYSIS SYSTEM  RELEASE 15.0      *****
 ANSYS Academic Research                           
 00203145          VERSION=LINUX x64     10:48:11  OCT 01, 2014 CP=      4.534

                                                                               

 
  ***** POST1 NODAL DEGREE OF FREEDOM LISTING *****                            
 
  LOAD STEP=     1  SUBSTEP=     1                                             
   TIME=    1.0000      LOAD CASE=   0                                         
 
    NODE      VOLT  
     976   555.72    
     977   496.97    
     978   578.17    
     979   419.88    
     980   439.43    
     981   376.86    
     982   405.90    
     983   596.74    
     984   613.99    
     985   537.51    
     986   474.84    
     987   498.81    
     988   459.04    
     989   519.91    
     990   483.26    
     991   450.75    
     992   546.00    
     993   512.76    
     994   541.48    
     995   564.25    
     996   573.35    
     997   621.34    
     998   458.03    
     999   478.83    
    1000   429.83    
    1001   435.31    
    1002   386.40    
    1003   350.69    
    1004   350.79    
    1005   645.10    
    1006   641.55    
    1007   661.67    
    1008   338.47    
    1009   629.81    
    1010   646.76    
    1011   590.79    
    1012   612.43    
    1013   506.69    
    1014   517.61    
1

 ***** ANSYS - ENGINEERING ANALYSIS SYSTEM  RELEASE 15.0      *****
 ANSYS Academic Research                           
 00203145          VERSION=LINUX x64     10:48:11  OCT 01, 2014 CP=      4.534

                                                                               

 
  ***** POST1 NODAL DEGREE OF FREEDOM LISTING *****                            
 
  LOAD STEP=     1  SUBSTEP=     1                                             
   TIME=    1.0000      LOAD CASE=   0                                         
 
    NODE      VOLT  
    1015   481.62    
    1016   492.56    
    1017   392.00    
    1018   413.18    
    1019   354.64    
    1020   372.29    
    1021   320.47    
    1022   322.51    
    1023   665.82    
    1024   670.56    
    1025   643.10    
    1026   340.02    
    1027   364.86    
    1028   405.76    
    1029   499.34    
    1030   602.80    
    1031   640.70    
    1032   452.67    
    1033   546.39    
    1034   525.38    
    1035   468.55    
    1036   498.22    
    1037   587.26    
    1038   409.39    
    1039   595.91    
    1040   585.75    
    1041   501.79    
    1042   632.77    
    1043   634.90    
    1044   577.94    
    1045   636.31    
    1046   513.48    
    1047   511.72    
    1048   506.48    
    1049   502.37    
    1050   508.32    
    1051   502.37    
    1052   563.24    
    1053   571.12    
1

 ***** ANSYS - ENGINEERING ANALYSIS SYSTEM  RELEASE 15.0      *****
 ANSYS Academic Research                           
 00203145          VERSION=LINUX x64     10:48:11  OCT 01, 2014 CP=      4.534

                                                                               

 
  ***** POST1 NODAL DEGREE OF FREEDOM LISTING *****                            
 
  LOAD STEP=     1  SUBSTEP=     1                                             
   TIME=    1.0000      LOAD CASE=   0                                         
 
    NODE      VOLT  
    1054   579.86    
    1055   561.27    
    1056   563.45    
    1057   554.82    
    1058   562.80    
    1059   542.59    
    1060   581.94    
    1061   588.31    
    1062   594.29    
    1063   595.43    
    1064   600.94    
    1065   599.00    
    1066   619.49    
    1067   548.10    
    1068   582.36    
    1069   544.80    
    1070   533.99    
    1071   533.53    
    1072   541.03    
    1073   542.03    
    1074   607.67    
    1075   607.97    
    1076   611.81    
    1077   610.36    
    1078   616.52    
    1079   636.31    
    1080   570.48    
    1081   588.17    
    1082   531.68    
    1083   519.76    
    1084   520.98    
    1085   521.80    
    1086   618.90    
    1087   597.01    
    1088   558.98    
    1089   538.21    
    1090   530.13    
    1091   512.45    
    1092   525.77    
1

 ***** ANSYS - ENGINEERING ANALYSIS SYSTEM  RELEASE 15.0      *****
 ANSYS Academic Research                           
 00203145          VERSION=LINUX x64     10:48:11  OCT 01, 2014 CP=      4.534

                                                                               

 
  ***** POST1 NODAL DEGREE OF FREEDOM LISTING *****                            
 
  LOAD STEP=     1  SUBSTEP=     1                                             
   TIME=    1.0000      LOAD CASE=   0                                         
 
    NODE      VOLT  
    1093   514.54    
    1094   632.49    
    1095   632.71    
    1096   626.88    
    1097   626.63    
    1098   632.97    
    1099   633.39    
    1100   630.37    
    1101   630.63    
    1102   631.33    
    1103   631.50    
    1104   595.58    
    1105   616.82    
    1106   516.58    
    1107   528.26    
    1108   513.97    
    1109   513.94    
    1110   634.78    
    1111   635.30    
    1112   513.73    
    1113   512.68    
    1114   514.69    
    1115   513.36    
    1116   507.51    
    1117   506.24    
    1118   507.14    
    1119   506.10    
    1120   505.64    
    1121   501.79    
    1122   501.89    
    1123   502.16    
    1124   502.15    
    1125   502.96    
    1126   502.88    
    1127   502.93    
    1128   502.87    
    1129   502.80    
    1130   502.79    
    1131   507.06    
1

 ***** ANSYS - ENGINEERING ANALYSIS SYSTEM  RELEASE 15.0      *****
 ANSYS Academic Research                           
 00203145          VERSION=LINUX x64     10:48:11  OCT 01, 2014 CP=      4.536

                                                                               

 
  ***** POST1 NODAL DEGREE OF FREEDOM LISTING *****                            
 
  LOAD STEP=     1  SUBSTEP=     1                                             
   TIME=    1.0000      LOAD CASE=   0                                         
 
    NODE      VOLT  
    1132   507.32    
    1133   507.40    
    1134   505.42    
    1135   504.77    
    1136   524.01    
    1137   521.47    
    1138   618.79    
    1139   521.76    
    1140   614.82    
    1141   611.97    
    1142   609.92    
    1143   614.86    
    1144   602.42    
    1145   518.55    
    1146   543.34    
    1147   564.33    
    1148   621.85    
    1149   564.42    
    1150   547.96    
    1151   581.43    
    1152   579.96    
    1153   505.92    
    1154   667.57    
    1155   331.27    
    1156   495.75    
    1157   594.43    
    1158   603.13    
    1159   412.74    
    1160   394.71    
    1161   470.98    
    1162   459.35    
    1163   538.36    
    1164   569.97    
    1165   431.46    
    1166   499.60    
    1167   329.60    
    1168   671.39    
    1169   499.18    
    1170   494.79    
1

 ***** ANSYS - ENGINEERING ANALYSIS SYSTEM  RELEASE 15.0      *****
 ANSYS Academic Research                           
 00203145          VERSION=LINUX x64     10:48:11  OCT 01, 2014 CP=      4.536

                                                                               

 
  ***** POST1 NODAL DEGREE OF FREEDOM LISTING *****                            
 
  LOAD STEP=     1  SUBSTEP=     1                                             
   TIME=    1.0000      LOAD CASE=   0                                         
 
    NODE      VOLT  
    1171   501.60    
    1172   533.33    
    1173   500.61    
    1174   481.52    
    1175   466.45    
    1176   463.47    
    1177   464.92    
    1178   460.19    
    1179   533.76    
    1180   533.06    
    1181   531.49    
    1182   528.14    
    1183   529.13    
    1184   456.04    
    1185   521.59    
    1186   472.65    
    1187   536.61    
    1188   465.04    
    1189   430.37    
    1190   429.68    
    1191   423.73    
    1192   571.01    
    1193   567.12    
    1194   566.57    
    1195   561.23    
    1196   436.08    
    1197   548.24    
    1198   517.92    
    1199   474.33    
    1200   548.08    
    1201   488.96    
    1202   511.88    
    1203   453.86    
    1204   397.34    
    1205   394.57    
    1206   396.98    
    1207   398.33    
    1208   396.12    
    1209   395.13    
1

 ***** ANSYS - ENGINEERING ANALYSIS SYSTEM  RELEASE 15.0      *****
 ANSYS Academic Research                           
 00203145          VERSION=LINUX x64     10:48:11  OCT 01, 2014 CP=      4.536

                                                                               

 
  ***** POST1 NODAL DEGREE OF FREEDOM LISTING *****                            
 
  LOAD STEP=     1  SUBSTEP=     1                                             
   TIME=    1.0000      LOAD CASE=   0                                         
 
    NODE      VOLT  
    1210   391.94    
    1211   607.80    
    1212   604.81    
    1213   602.26    
    1214   601.94    
    1215   600.59    
    1216   599.97    
    1217   600.56    
    1218   572.33    
    1219   437.69    
    1220   563.28    
    1221   518.02    
    1222   481.53    
    1223   444.60    
    1224   500.55    
    1225   360.77    
    1226   362.28    
    1227   361.80    
    1228   365.07    
    1229   640.92    
    1230   637.35    
    1231   636.49    
    1232   639.40    
    1233   612.07    
    1234   400.40    
    1235   604.85    
    1236   583.27    
    1237   560.73    
    1238   538.74    
    1239   517.48    
    1240   506.70    
    1241   492.43    
    1242   481.57    
    1243   462.32    
    1244   440.81    
    1245   422.62    
    1246   401.32    
    1247   603.97    
    1248   640.59    
1

 ***** ANSYS - ENGINEERING ANALYSIS SYSTEM  RELEASE 15.0      *****
 ANSYS Academic Research                           
 00203145          VERSION=LINUX x64     10:48:11  OCT 01, 2014 CP=      4.538

                                                                               

 
  ***** POST1 NODAL DEGREE OF FREEDOM LISTING *****                            
 
  LOAD STEP=     1  SUBSTEP=     1                                             
   TIME=    1.0000      LOAD CASE=   0                                         
 
    NODE      VOLT  
    1249   511.95    
    1250   544.80    
    1251   455.70    
    1252   489.30    
    1253   360.32    
    1254   396.85    
    1255   329.04    
    1256   329.27    
    1257   332.06    
    1258   332.44    
    1259   330.76    
    1260   330.96    
    1261   332.00    
    1262   331.73    
    1263   333.79    
    1264   671.71    
    1265   671.95    
    1266   668.23    
    1267   668.71    
    1268   667.92    
    1269   668.18    
    1270   667.62    
    1271   667.30    
    1272   672.05    
    1273   632.82    
    1274   653.98    
    1275   370.63    
    1276   350.20    
    1277   340.64    
    1278   336.27    
    1279   669.63    
    1280   665.28    
    1281   639.15    
    1282   370.99    
    1283   635.57    
    1284   636.86    
    1285   637.73    
    1286   644.28    
    1287   363.09    
1

 ***** ANSYS - ENGINEERING ANALYSIS SYSTEM  RELEASE 15.0      *****
 ANSYS Academic Research                           
 00203145          VERSION=LINUX x64     10:48:11  OCT 01, 2014 CP=      4.538

                                                                               

 
  ***** POST1 NODAL DEGREE OF FREEDOM LISTING *****                            
 
  LOAD STEP=     1  SUBSTEP=     1                                             
   TIME=    1.0000      LOAD CASE=   0                                         
 
    NODE      VOLT  
    1288   361.05    
    1289   363.66    
    1290   357.66    
    1291   477.78    
    1292   523.30    
    1293   426.83    
    1294   460.54    
    1295   499.14    
    1296   541.36    
    1297   587.37    
    1298   451.91    
    1299   554.51    
    1300   566.80    
    1301   565.50    
    1302   568.37    
    1303   573.63    
    1304   419.99    
    1305   428.18    
    1306   431.46    
    1307   429.25    
    1308   500.24    
    1309   491.37    
    1310   491.57    
    1311   498.08    
    1312   511.04    
    1313   300.00    
    1314   300.00    
    1315   300.00    
    1316   300.00    
    1317   300.00    
    1318   300.00    
    1319   300.00    
    1320   300.00    
    1321   300.00    
    1322   300.00    
    1323   300.00    
    1324   300.00    
    1325   300.00    
    1326   300.00    
1

 ***** ANSYS - ENGINEERING ANALYSIS SYSTEM  RELEASE 15.0      *****
 ANSYS Academic Research                           
 00203145          VERSION=LINUX x64     10:48:11  OCT 01, 2014 CP=      4.538

                                                                               

 
  ***** POST1 NODAL DEGREE OF FREEDOM LISTING *****                            
 
  LOAD STEP=     1  SUBSTEP=     1                                             
   TIME=    1.0000      LOAD CASE=   0                                         
 
    NODE      VOLT  
    1327   300.00    
    1328   300.00    
    1329   300.00    
    1330   300.00    
    1331   300.00    
    1332   300.00    
    1333   300.00    
    1334   300.00    
    1335   300.00    
    1336   300.00    
    1337   300.00    
    1338   300.00    
    1339   300.00    
    1340   300.00    
    1341   300.00    
    1342   300.00    
    1343   300.00    
    1344   300.00    
    1345   300.00    
    1346   300.00    
    1347   300.00    
    1348   300.00    
    1349   300.00    
    1350   300.00    
    1351   300.00    
    1352   300.00    
    1353   300.00    
    1354   300.00    
    1355   300.00    
    1356   300.00    
    1357   300.00    
    1358   300.00    
    1359   300.00    
    1360   300.00    
    1361   300.00    
    1362   300.00    
    1363   300.00    
    1364   300.00    
    1365   300.00    
1

 ***** ANSYS - ENGINEERING ANALYSIS SYSTEM  RELEASE 15.0      *****
 ANSYS Academic Research                           
 00203145          VERSION=LINUX x64     10:48:11  OCT 01, 2014 CP=      4.539

                                                                               

 
  ***** POST1 NODAL DEGREE OF FREEDOM LISTING *****                            
 
  LOAD STEP=     1  SUBSTEP=     1                                             
   TIME=    1.0000      LOAD CASE=   0                                         
 
    NODE      VOLT  
    1366   300.00    
    1367   300.00    
    1368   300.00    
    1369   300.00    
    1370   300.00    
    1371   300.00    
    1372   300.00    
    1373   300.00    
    1374   300.00    
    1375   300.00    
    1376   300.00    
    1377   300.00    
    1378   300.00    
    1379   300.00    
    1380   300.00    
    1381   300.00    
    1382   300.00    
    1383   300.00    
    1384   300.00    
    1385   300.00    
    1386   300.00    
    1387   300.00    
    1388   300.00    
    1389   300.00    
    1390   300.00    
    1391   300.00    
    1392   300.00    
    1393   300.00    
    1394   300.00    
    1395   300.00    
    1396   300.00    
    1397   300.00    
    1398   300.00    
    1399   300.00    
    1400   300.00    
    1401   300.00    
    1402   300.00    
    1403   300.00    
    1404   300.00    
1

 ***** ANSYS - ENGINEERING ANALYSIS SYSTEM  RELEASE 15.0      *****
 ANSYS Academic Research                           
 00203145          VERSION=LINUX x64     10:48:11  OCT 01, 2014 CP=      4.540

                                                                               

 
  ***** POST1 NODAL DEGREE OF FREEDOM LISTING *****                            
 
  LOAD STEP=     1  SUBSTEP=     1                                             
   TIME=    1.0000      LOAD CASE=   0                                         
 
    NODE      VOLT  
    1405   300.00    
    1406   300.00    
    1407   300.00    
    1408   300.00    
    1409   300.00    
    1410   300.00    
    1411   300.00    
    1412   300.00    
    1413   300.00    
    1414   300.00    
    1415   300.00    
    1416   300.00    
    1417   300.00    
    1418   300.00    
    1419   300.00    
    1420   300.00    
    1421   300.00    
    1422   300.00    
    1423   300.00    
    1424   300.00    
    1425   300.00    
    1426   300.00    
    1427   300.00    
    1428   300.00    
    1429   300.00    
    1430   300.00    
    1431   300.00    
    1432   300.00    
    1433   300.00    
    1434   300.00    
    1435   300.00    
    1436   300.00    
    1437   300.00    
    1438   300.00    
    1439   300.00    
    1440   300.00    
    1441   300.00    
    1442   300.00    
    1443   300.00    
1

 ***** ANSYS - ENGINEERING ANALYSIS SYSTEM  RELEASE 15.0      *****
 ANSYS Academic Research                           
 00203145          VERSION=LINUX x64     10:48:11  OCT 01, 2014 CP=      4.540

                                                                               

 
  ***** POST1 NODAL DEGREE OF FREEDOM LISTING *****                            
 
  LOAD STEP=     1  SUBSTEP=     1                                             
   TIME=    1.0000      LOAD CASE=   0                                         
 
    NODE      VOLT  
    1444   300.00    
    1445   300.00    
    1446   300.00    
    1447   300.00    
    1448   300.00    
    1449   300.00    
    1450   300.00    
    1451   300.00    
    1452   335.57    
    1453   331.02    
    1454   343.20    
    1455   342.14    
    1456   318.46    
    1457   319.87    
    1458   345.31    
    1459   322.25    
    1460   345.34    
    1461   322.95    
    1462   333.61    
    1463   334.54    
    1464   329.90    
    1465   332.20    
    1466   331.09    
    1467   333.66    
    1468   333.96    
    1469   331.16    
    1470   334.66    
    1471   332.19    
    1472   334.39    
    1473   330.64    
    1474   334.01    
    1475   331.41    
    1476   335.04    
    1477   334.11    
    1478   337.03    
    1479   333.58    
    1480   410.60    
    1481   434.68    
    1482   399.50    
1

 ***** ANSYS - ENGINEERING ANALYSIS SYSTEM  RELEASE 15.0      *****
 ANSYS Academic Research                           
 00203145          VERSION=LINUX x64     10:48:11  OCT 01, 2014 CP=      4.540

                                                                               

 
  ***** POST1 NODAL DEGREE OF FREEDOM LISTING *****                            
 
  LOAD STEP=     1  SUBSTEP=     1                                             
   TIME=    1.0000      LOAD CASE=   0                                         
 
    NODE      VOLT  
    1483   364.06    
    1484   366.86    
    1485   498.01    
    1486   401.82    
    1487   487.90    
    1488   493.43    
    1489   491.53    
    1490   497.41    
    1491   497.43    
    1492   434.84    
    1493   414.83    
    1494   418.79    
    1495   433.89    
    1496   436.93    
    1497   424.09    
    1498   402.97    
    1499   401.38    
    1500   396.79    
    1501   401.06    
    1502   419.40    
    1503   452.41    
    1504   465.62    
    1505   452.81    
    1506   458.41    
    1507   442.69    
    1508   450.35    
    1509   466.82    
    1510   393.02    
    1511   390.83    
    1512   383.52    
    1513   381.36    
    1514   412.41    
    1515   430.14    
    1516   432.66    
    1517   465.21    
    1518   479.48    
    1519   479.00    
    1520   462.77    
    1521   464.32    
1

 ***** ANSYS - ENGINEERING ANALYSIS SYSTEM  RELEASE 15.0      *****
 ANSYS Academic Research                           
 00203145          VERSION=LINUX x64     10:48:11  OCT 01, 2014 CP=      4.542

                                                                               

 
  ***** POST1 NODAL DEGREE OF FREEDOM LISTING *****                            
 
  LOAD STEP=     1  SUBSTEP=     1                                             
   TIME=    1.0000      LOAD CASE=   0                                         
 
    NODE      VOLT  
    1522   478.81    
    1523   367.07    
    1524   366.88    
    1525   374.11    
    1526   373.99    
    1527   364.89    
    1528   364.71    
    1529   366.83    
    1530   366.78    
    1531   362.62    
    1532   471.77    
    1533   483.41    
    1534   382.85    
    1535   404.01    
    1536   487.16    
    1537   467.08    
    1538   485.08    
    1539   473.83    
    1540   459.33    
    1541   438.27    
    1542   418.15    
    1543   396.20    
    1544   397.65    
    1545   380.00    
    1546   362.78    
    1547   379.84    
    1548   381.30    
    1549   485.36    
    1550   485.59    
    1551   365.64    
    1552   365.36    
    1553   363.81    
    1554   363.70    
    1555   486.50    
    1556   486.84    
    1557   485.66    
    1558   486.89    
    1559   487.65    
    1560   492.30    
1

 ***** ANSYS - ENGINEERING ANALYSIS SYSTEM  RELEASE 15.0      *****
 ANSYS Academic Research                           
 00203145          VERSION=LINUX x64     10:48:11  OCT 01, 2014 CP=      4.542

                                                                               

 
  ***** POST1 NODAL DEGREE OF FREEDOM LISTING *****                            
 
  LOAD STEP=     1  SUBSTEP=     1                                             
   TIME=    1.0000      LOAD CASE=   0                                         
 
    NODE      VOLT  
    1561   493.53    
    1562   492.61    
    1563   494.32    
    1564   493.91    
    1565   497.86    
    1566   497.96    
    1567   497.68    
    1568   497.67    
    1569   496.78    
    1570   496.76    
    1571   496.98    
    1572   496.95    
    1573   497.02    
    1574   497.12    
    1575   493.01    
    1576   492.57    
    1577   492.20    
    1578   494.49    
    1579   495.08    
    1580   479.40    
    1581   476.57    
    1582   378.91    
    1583   382.06    
    1584   477.23    
    1585   376.86    
    1586   412.24    
    1587   451.16    
    1588   480.79    
    1589   384.62    
    1590   384.69    
    1591   381.36    
    1592   399.04    
    1593   446.38    
    1594   437.21    
    1595   452.11    
    1596   415.42    
    1597   419.82    
    1598   493.96    
    1599   664.30    
1

 ***** ANSYS - ENGINEERING ANALYSIS SYSTEM  RELEASE 15.0      *****
 ANSYS Academic Research                           
 00203145          VERSION=LINUX x64     10:48:11  OCT 01, 2014 CP=      4.542

                                                                               

 
  ***** POST1 NODAL DEGREE OF FREEDOM LISTING *****                            
 
  LOAD STEP=     1  SUBSTEP=     1                                             
   TIME=    1.0000      LOAD CASE=   0                                         
 
    NODE      VOLT  
    1600   377.36    
    1601   623.98    
    1602   567.67    
    1603   432.99    
    1604   499.77    
    1605   326.69    
    1606   674.44    
    1607   613.48    
    1608   386.99    
    1609   338.16    
    1610   513.74    
    1611   486.93    
    1612   524.42    
    1613   500.53    
    1614   442.75    
    1615   421.43    
    1616   385.56    
    1617   402.94    
    1618   558.19    
    1619   579.04    
    1620   597.96    
    1621   615.85    
    1622   539.80    
    1623   475.86    
    1624   499.79    
    1625   460.90    
    1626   520.64    
    1627   547.71    
    1628   515.27    
    1629   485.98    
    1630   452.80    
    1631   542.09    
    1632   564.88    
    1633   574.54    
    1634   621.82    
    1635   457.98    
    1636   478.98    
    1637   426.00    
    1638   435.20    
1

 ***** ANSYS - ENGINEERING ANALYSIS SYSTEM  RELEASE 15.0      *****
 ANSYS Academic Research                           
 00203145          VERSION=LINUX x64     10:48:11  OCT 01, 2014 CP=      4.544

                                                                               

 
  ***** POST1 NODAL DEGREE OF FREEDOM LISTING *****                            
 
  LOAD STEP=     1  SUBSTEP=     1                                             
   TIME=    1.0000      LOAD CASE=   0                                         
 
    NODE      VOLT  
    1639   354.73    
    1640   378.54    
    1641   646.26    
    1642   642.64    
    1643   358.35    
    1644   629.83    
    1645   591.17    
    1646   612.82    
    1647   506.78    
    1648   517.69    
    1649   481.82    
    1650   492.72    
    1651   387.48    
    1652   409.09    
    1653   353.06    
    1654   370.00    
    1655   646.72    
    1656   661.52    
    1657   667.18    
    1658   671.82    
    1659   329.37    
    1660   334.10    
    1661   356.79    
    1662   645.27    
    1663   640.79    
    1664   359.06    
    1665   397.11    
    1666   499.58    
    1667   603.68    
    1668   452.56    
    1669   547.74    
    1670   472.31    
    1671   528.76    
    1672   500.13    
    1673   588.90    
    1674   412.00    
    1675   553.80    
    1676   512.19    
    1677   511.32    
1

 ***** ANSYS - ENGINEERING ANALYSIS SYSTEM  RELEASE 15.0      *****
 ANSYS Academic Research                           
 00203145          VERSION=LINUX x64     10:48:11  OCT 01, 2014 CP=      4.544

                                                                               

 
  ***** POST1 NODAL DEGREE OF FREEDOM LISTING *****                            
 
  LOAD STEP=     1  SUBSTEP=     1                                             
   TIME=    1.0000      LOAD CASE=   0                                         
 
    NODE      VOLT  
    1678   513.21    
    1679   521.47    
    1680   579.80    
    1681   596.15    
    1682   511.70    
    1683   501.85    
    1684   631.20    
    1685   632.84    
    1686   636.79    
    1687   504.92    
    1688   502.20    
    1689   507.98    
    1690   502.15    
    1691   574.84    
    1692   569.85    
    1693   567.08    
    1694   555.56    
    1695   561.77    
    1696   542.77    
    1697   580.44    
    1698   585.17    
    1699   591.21    
    1700   601.53    
    1701   602.49    
    1702   616.30    
    1703   548.14    
    1704   581.88    
    1705   534.03    
    1706   535.03    
    1707   539.37    
    1708   541.22    
    1709   607.37    
    1710   605.72    
    1711   605.18    
    1712   610.13    
    1713   621.29    
    1714   636.67    
    1715   570.49    
    1716   588.22    
1

 ***** ANSYS - ENGINEERING ANALYSIS SYSTEM  RELEASE 15.0      *****
 ANSYS Academic Research                           
 00203145          VERSION=LINUX x64     10:48:11  OCT 01, 2014 CP=      4.544

                                                                               

 
  ***** POST1 NODAL DEGREE OF FREEDOM LISTING *****                            
 
  LOAD STEP=     1  SUBSTEP=     1                                             
   TIME=    1.0000      LOAD CASE=   0                                         
 
    NODE      VOLT  
    1717   582.93    
    1718   536.91    
    1719   518.97    
    1720   632.88    
    1721   632.71    
    1722   627.01    
    1723   626.97    
    1724   631.16    
    1725   630.68    
    1726   625.69    
    1727   625.75    
    1728   636.14    
    1729   636.27    
    1730   595.82    
    1731   616.85    
    1732   516.80    
    1733   528.50    
    1734   615.00    
    1735   593.47    
    1736   566.63    
    1737   544.97    
    1738   525.68    
    1739   514.55    
    1740   631.09    
    1741   631.57    
    1742   512.89    
    1743   512.26    
    1744   514.85    
    1745   513.50    
    1746   507.58    
    1747   505.71    
    1748   505.42    
    1749   506.03    
    1750   505.66    
    1751   501.88    
    1752   501.95    
    1753   502.12    
    1754   502.08    
    1755   502.64    
1

 ***** ANSYS - ENGINEERING ANALYSIS SYSTEM  RELEASE 15.0      *****
 ANSYS Academic Research                           
 00203145          VERSION=LINUX x64     10:48:11  OCT 01, 2014 CP=      4.544

                                                                               

 
  ***** POST1 NODAL DEGREE OF FREEDOM LISTING *****                            
 
  LOAD STEP=     1  SUBSTEP=     1                                             
   TIME=    1.0000      LOAD CASE=   0                                         
 
    NODE      VOLT  
    1756   502.56    
    1757   501.82    
    1758   501.88    
    1759   502.84    
    1760   502.90    
    1761   507.13    
    1762   504.64    
    1763   506.53    
    1764   505.25    
    1765   504.81    
    1766   524.34    
    1767   520.76    
    1768   611.26    
    1769   519.36    
    1770   557.72    
    1771   614.93    
    1772   620.69    
    1773   600.87    
    1774   610.96    
    1775   601.58    
    1776   564.29    
    1777   622.45    
    1778   561.87    
    1779   552.01    
    1780   583.67    
    1781   505.41    
    1782   667.74    
    1783   548.12    
    1784   514.08    
    1785   496.52    
    1786   569.41    
    1787   606.49    
    1788   601.49    
    1789   602.03    
    1790   597.94    
    1791   612.35    
    1792   407.98    
    1793   416.28    
    1794   537.87    
1

 ***** ANSYS - ENGINEERING ANALYSIS SYSTEM  RELEASE 15.0      *****
 ANSYS Academic Research                           
 00203145          VERSION=LINUX x64     10:48:11  OCT 01, 2014 CP=      4.546

                                                                               

 
  ***** POST1 NODAL DEGREE OF FREEDOM LISTING *****                            
 
  LOAD STEP=     1  SUBSTEP=     1                                             
   TIME=    1.0000      LOAD CASE=   0                                         
 
    NODE      VOLT  
    1795   404.01    
    1796   479.36    
    1797   460.02    
    1798   430.79    
    1799   499.60    
    1800   329.61    
    1801   670.55    
    1802   512.95    
    1803   508.85    
    1804   530.93    
    1805   504.55    
    1806   502.21    
    1807   546.75    
    1808   543.78    
    1809   539.20    
    1810   471.20    
    1811   467.10    
    1812   466.46    
    1813   481.05    
    1814   475.92    
    1815   537.84    
    1816   466.68    
    1817   538.32    
    1818   525.57    
    1819   472.91    
    1820   572.42    
    1821   569.49    
    1822   576.04    
    1823   432.35    
    1824   436.93    
    1825   443.86    
    1826   404.90    
    1827   573.10    
    1828   453.51    
    1829   491.21    
    1830   547.68    
    1831   551.99    
    1832   519.51    
    1833   475.28    
1

 ***** ANSYS - ENGINEERING ANALYSIS SYSTEM  RELEASE 15.0      *****
 ANSYS Academic Research                           
 00203145          VERSION=LINUX x64     10:48:11  OCT 01, 2014 CP=      4.546

                                                                               

 
  ***** POST1 NODAL DEGREE OF FREEDOM LISTING *****                            
 
  LOAD STEP=     1  SUBSTEP=     1                                             
   TIME=    1.0000      LOAD CASE=   0                                         
 
    NODE      VOLT  
    1834   603.72    
    1835   603.73    
    1836   604.45    
    1837   611.65    
    1838   396.68    
    1839   394.00    
    1840   400.97    
    1841   395.87    
    1842   575.81    
    1843   437.21    
    1844   500.77    
    1845   564.43    
    1846   518.62    
    1847   481.65    
    1848   444.81    
    1849   639.51    
    1850   637.29    
    1851   638.68    
    1852   641.21    
    1853   360.70    
    1854   358.42    
    1855   361.80    
    1856   373.18    
    1857   612.59    
    1858   404.54    
    1859   360.43    
    1860   396.80    
    1861   455.73    
    1862   488.63    
    1863   511.23    
    1864   544.85    
    1865   603.18    
    1866   639.78    
    1867   605.45    
    1868   583.76    
    1869   561.60    
    1870   539.47    
    1871   517.50    
    1872   506.71    
1

 ***** ANSYS - ENGINEERING ANALYSIS SYSTEM  RELEASE 15.0      *****
 ANSYS Academic Research                           
 00203145          VERSION=LINUX x64     10:48:11  OCT 01, 2014 CP=      4.546

                                                                               

 
  ***** POST1 NODAL DEGREE OF FREEDOM LISTING *****                            
 
  LOAD STEP=     1  SUBSTEP=     1                                             
   TIME=    1.0000      LOAD CASE=   0                                         
 
    NODE      VOLT  
    1873   492.40    
    1874   481.52    
    1875   462.50    
    1876   440.90    
    1877   422.61    
    1878   401.23    
    1879   670.87    
    1880   671.10    
    1881   667.60    
    1882   668.00    
    1883   668.40    
    1884   668.71    
    1885   669.40    
    1886   669.07    
    1887   671.89    
    1888   329.02    
    1889   329.27    
    1890   332.10    
    1891   332.51    
    1892   326.72    
    1893   326.94    
    1894   335.94    
    1895   335.62    
    1896   338.63    
    1897   633.00    
    1898   653.98    
    1899   374.67    
    1900   354.67    
    1901   669.47    
    1902   665.40    
    1903   346.37    
    1904   341.44    
    1905   380.28    
    1906   639.10    
    1907   370.63    
    1908   353.22    
    1909   363.74    
    1910   357.66    
    1911   638.97    
1

 ***** ANSYS - ENGINEERING ANALYSIS SYSTEM  RELEASE 15.0      *****
 ANSYS Academic Research                           
 00203145          VERSION=LINUX x64     10:48:11  OCT 01, 2014 CP=      4.548

                                                                               

 
  ***** POST1 NODAL DEGREE OF FREEDOM LISTING *****                            
 
  LOAD STEP=     1  SUBSTEP=     1                                             
   TIME=    1.0000      LOAD CASE=   0                                         
 
    NODE      VOLT  
    1912   637.81    
    1913   636.53    
    1914   642.62    
    1915   426.81    
    1916   460.98    
    1917   499.12    
    1918   542.83    
    1919   588.19    
    1920   523.47    
    1921   478.03    
    1922   450.63    
    1923   560.95    
    1924   436.72    
    1925   428.18    
    1926   584.84    
    1927   566.28    
    1928   572.27    
    1929   572.63    
    1930   493.11    
    1931   504.57    
    1932   437.97    
    1933   512.59    
    1934   496.14    
    1935   521.49    
    1936   655.63    
    1937   680.51    
    1938   656.15    
    1939   678.81    
    1940   654.54    
    1941   654.47    
    1942   677.69    
    1943   677.01    
    1944   665.29    
    1945   666.23    
    1946   666.02    
    1947   669.18    
    1948   668.49    
    1949   666.08    
    1950   667.41    
1

 ***** ANSYS - ENGINEERING ANALYSIS SYSTEM  RELEASE 15.0      *****
 ANSYS Academic Research                           
 00203145          VERSION=LINUX x64     10:48:11  OCT 01, 2014 CP=      4.548

                                                                               

 
  ***** POST1 NODAL DEGREE OF FREEDOM LISTING *****                            
 
  LOAD STEP=     1  SUBSTEP=     1                                             
   TIME=    1.0000      LOAD CASE=   0                                         
 
    NODE      VOLT  
    1951   670.08    
    1952   667.77    
    1953   666.02    
    1954   667.39    
    1955   663.99    
    1956   667.08    
    1957   664.50    
    1958   665.45    
    1959   663.36    
    1960   662.85    
    1961   665.19    
    1962   700.00    
    1963   700.00    
    1964   700.00    
    1965   700.00    
    1966   700.00    
    1967   700.00    
    1968   700.00    
    1969   700.00    
    1970   700.00    
    1971   700.00    
    1972   700.00    
    1973   700.00    
    1974   700.00    
    1975   700.00    
    1976   700.00    
    1977   700.00    
    1978   700.00    
    1979   700.00    
    1980   700.00    
    1981   700.00    
    1982   700.00    
    1983   700.00    
    1984   700.00    
    1985   700.00    
    1986   700.00    
    1987   700.00    
    1988   700.00    
    1989   700.00    
1

 ***** ANSYS - ENGINEERING ANALYSIS SYSTEM  RELEASE 15.0      *****
 ANSYS Academic Research                           
 00203145          VERSION=LINUX x64     10:48:11  OCT 01, 2014 CP=      4.548

                                                                               

 
  ***** POST1 NODAL DEGREE OF FREEDOM LISTING *****                            
 
  LOAD STEP=     1  SUBSTEP=     1                                             
   TIME=    1.0000      LOAD CASE=   0                                         
 
    NODE      VOLT  
    1990   700.00    
    1991   700.00    
    1992   700.00    
    1993   700.00    
    1994   700.00    
    1995   700.00    
    1996   700.00    
    1997   700.00    
    1998   700.00    
    1999   700.00    
    2000   700.00    
    2001   700.00    
    2002   700.00    
    2003   700.00    
    2004   700.00    
    2005   700.00    
    2006   700.00    
    2007   700.00    
    2008   700.00    
    2009   700.00    
    2010   700.00    
    2011   700.00    
    2012   700.00    
    2013   700.00    
    2014   700.00    
    2015   700.00    
    2016   700.00    
    2017   700.00    
    2018   700.00    
    2019   700.00    
    2020   700.00    
    2021   700.00    
    2022   700.00    
    2023   700.00    
    2024   700.00    
    2025   700.00    
    2026   700.00    
    2027   700.00    
    2028   700.00    
1

 ***** ANSYS - ENGINEERING ANALYSIS SYSTEM  RELEASE 15.0      *****
 ANSYS Academic Research                           
 00203145          VERSION=LINUX x64     10:48:11  OCT 01, 2014 CP=      4.548

                                                                               

 
  ***** POST1 NODAL DEGREE OF FREEDOM LISTING *****                            
 
  LOAD STEP=     1  SUBSTEP=     1                                             
   TIME=    1.0000      LOAD CASE=   0                                         
 
    NODE      VOLT  
    2029   700.00    
    2030   700.00    
    2031   700.00    
    2032   700.00    
    2033   700.00    
    2034   700.00    
    2035   700.00    
    2036   700.00    
    2037   700.00    
    2038   700.00    
    2039   700.00    
    2040   700.00    
    2041   700.00    
    2042   700.00    
    2043   700.00    
    2044   700.00    
    2045   700.00    
    2046   700.00    
    2047   700.00    
    2048   700.00    
    2049   700.00    
    2050   700.00    
    2051   700.00    
    2052   700.00    
    2053   700.00    
    2054   700.00    
    2055   700.00    
    2056   700.00    
    2057   700.00    
    2058   700.00    
    2059   700.00    
    2060   700.00    
    2061   700.00    
    2062   700.00    
    2063   700.00    
    2064   700.00    
    2065   700.00    
    2066   700.00    
    2067   700.00    
1

 ***** ANSYS - ENGINEERING ANALYSIS SYSTEM  RELEASE 15.0      *****
 ANSYS Academic Research                           
 00203145          VERSION=LINUX x64     10:48:11  OCT 01, 2014 CP=      4.550

                                                                               

 
  ***** POST1 NODAL DEGREE OF FREEDOM LISTING *****                            
 
  LOAD STEP=     1  SUBSTEP=     1                                             
   TIME=    1.0000      LOAD CASE=   0                                         
 
    NODE      VOLT  
    2068   700.00    
    2069   700.00    
    2070   700.00    
    2071   700.00    
    2072   700.00    
    2073   700.00    
    2074   700.00    
    2075   700.00    
    2076   700.00    
    2077   700.00    
    2078   700.00    
    2079   700.00    
    2080   700.00    
    2081   700.00    
    2082   700.00    
    2083   700.00    
    2084   700.00    
    2085   700.00    
    2086   700.00    
    2087   700.00    
    2088   700.00    
    2089   700.00    
    2090   700.00    
    2091   700.00    
    2092   700.00    
    2093   700.00    
    2094   700.00    
    2095   700.00    
    2096   700.00    
    2097   700.00    
    2098   700.00    
    2099   700.00    
    2100   700.00    
    2101   655.62    
    2102   680.07    
    2103   656.00    
    2104   678.69    
    2105   654.54    
    2106   654.52    
1

 ***** ANSYS - ENGINEERING ANALYSIS SYSTEM  RELEASE 15.0      *****
 ANSYS Academic Research                           
 00203145          VERSION=LINUX x64     10:48:11  OCT 01, 2014 CP=      4.550

                                                                               

 
  ***** POST1 NODAL DEGREE OF FREEDOM LISTING *****                            
 
  LOAD STEP=     1  SUBSTEP=     1                                             
   TIME=    1.0000      LOAD CASE=   0                                         
 
    NODE      VOLT  
    2107   677.67    
    2108   676.96    
    2109   666.99    
    2110   666.32    
    2111   666.02    
    2112   668.35    
    2113   664.68    
    2114   668.28    
    2115   668.03    
    2116   664.43    
    2117   669.29    
    2118   666.88    
    2119   666.87    
    2120   665.78    
    2121   668.30    
    2122   666.73    
    2123   665.14    
    2124   664.76    
    2125   662.84    
    2126   664.92    
    2127   345.02    
    2128   322.09    
    2129   344.69    
    2130   321.20    
    2131   343.69    
    2132   342.56    
    2133   318.97    
    2134   320.30    
    2135   334.67    
    2136   332.32    
    2137   329.45    
    2138   330.76    
    2139   330.52    
    2140   333.76    
    2141   333.72    
    2142   329.86    
    2143   331.45    
    2144   330.55    
    2145   333.50    
1

 ***** ANSYS - ENGINEERING ANALYSIS SYSTEM  RELEASE 15.0      *****
 ANSYS Academic Research                           
 00203145          VERSION=LINUX x64     10:48:11  OCT 01, 2014 CP=      4.550

                                                                               

 
  ***** POST1 NODAL DEGREE OF FREEDOM LISTING *****                            
 
  LOAD STEP=     1  SUBSTEP=     1                                             
   TIME=    1.0000      LOAD CASE=   0                                         
 
    NODE      VOLT  
    2146   332.08    
    2147   335.53    
    2148   332.48    
    2149   334.60    
    2150   333.90    
    2151   333.85    
    2152   336.35    
    2153   665.83    
    2154   662.03    
    2155   614.15    
    2156   625.37    
    2157   433.80    
    2158   385.21    
    2159   463.34    
    2160   372.77    
    2161   642.15    
    2162   646.47    
    2163   644.40    
    2164   629.73    
    2165   587.13    
    2166   581.53    
    2167   591.63    
    2168   429.82    
    2169   416.98    
    2170   378.55    
    2171   375.08    
    2172   431.57    
    2173   409.19    
    2174   390.21    
    2175   373.34    
    2176   357.12    
    2177   368.05    
    2178   403.22    
    2179   342.23    
    2180   567.91    
    2181   596.63    
    2182   524.73    
    2183   515.94    
    2184   543.31    
1

 ***** ANSYS - ENGINEERING ANALYSIS SYSTEM  RELEASE 15.0      *****
 ANSYS Academic Research                           
 00203145          VERSION=LINUX x64     10:48:11  OCT 01, 2014 CP=      4.552

                                                                               

 
  ***** POST1 NODAL DEGREE OF FREEDOM LISTING *****                            
 
  LOAD STEP=     1  SUBSTEP=     1                                             
   TIME=    1.0000      LOAD CASE=   0                                         
 
    NODE      VOLT  
    2185   609.93    
    2186   553.78    
    2187   406.42    
    2188   404.36    
    2189   355.36    
    2190   454.95    
    2191   425.02    
    2192   413.82    
    2193   399.69    
    2194   412.52    
    2195   377.40    
    2196   383.20    
    2197   454.66    
    2198   404.27    
    2199   436.35    
    2200   354.97    
    2201   427.92    
    2202   609.07    
    2203   560.06    
    2204   525.40    
    2205   555.94    
    2206   598.15    
    2207   555.66    
[...]
    7492   502.63    
    7493   502.63    
    7494   670.72    
    7495   677.38    
    7496   651.79    
    7497   679.30    
    7498   630.31    
    7499   635.94    
    7500   623.81    
    7501   635.58    
    7502   650.07    
    7503   651.30    
    7504   685.05    
    7505   688.47    
    7506   694.45    
    7507   695.09    
    7508   690.81    
    7509   694.11    
    7510   684.39    
    7511   696.29    
    7512   695.54    
    7513   692.47    
    7514   696.22    
    7515   694.91    
    7516   693.46    
    7517   694.54    
    7518   691.93    
    7519   688.36    
    7520   695.29    
    7521   694.63    
    7522   696.46    
    7523   695.15    
    7524   455.92    
    7525   455.47    
    7526   506.01    
    7527   428.86    
1

 ***** ANSYS - ENGINEERING ANALYSIS SYSTEM  RELEASE 15.0      *****
 ANSYS Academic Research                           
 00203145          VERSION=LINUX x64     10:48:11  OCT 01, 2014 CP=      4.631

                                                                               

 
  ***** POST1 NODAL DEGREE OF FREEDOM LISTING *****                            
 
  LOAD STEP=     1  SUBSTEP=     1                                             
   TIME=    1.0000      LOAD CASE=   0                                         
 
    NODE      VOLT  
    7528   442.30    
    7529   447.65    
    7530   438.08    
    7531   420.80    
    7532   414.33    
    7533   428.41    
    7534   410.47    
    7535   400.20    
    7536   371.84    
    7537   391.89    
    7538   391.64    
    7539   372.29    
    7540   402.37    
    7541   409.67    
    7542   509.22    
    7543   530.41    
    7544   605.03    
    7545   634.08    
    7546   605.46    
    7547   607.16    
    7548   533.33    
    7549   626.48    
    7550   540.77    
    7551   514.48    
    7552   636.58    
    7553   647.43    
    7554   633.31    
    7555   619.10    
    7556   360.02    
    7557   355.34    
    7558   347.09    
    7559   344.69    
    7560   372.59    
    7561   356.27    
    7562   353.70    
    7563   377.27    
    7564   395.50    
    7565   382.74    
    7566   350.79    
1

 ***** ANSYS - ENGINEERING ANALYSIS SYSTEM  RELEASE 15.0      *****
 ANSYS Academic Research                           
 00203145          VERSION=LINUX x64     10:48:11  OCT 01, 2014 CP=      4.632

                                                                               

 
  ***** POST1 NODAL DEGREE OF FREEDOM LISTING *****                            
 
  LOAD STEP=     1  SUBSTEP=     1                                             
   TIME=    1.0000      LOAD CASE=   0                                         
 
    NODE      VOLT  
    7567   385.52    
    7568   354.50    
    7569   366.00    
    7570   367.21    
    7571   355.11    
    7572   322.46    
    7573   325.25    
    7574   321.45    
    7575   361.94    
    7576   346.25    
    7577   360.24    
    7578   335.44    
    7579   348.05    
    7580   305.57    
    7581   306.81    
    7582   307.98    
    7583   310.96    
    7584   684.18    
    7585   692.51    
    7586   684.01    
    7587   676.57    
    7588   680.82    
    7589   684.51    
    7590   683.81    
    7591   671.31    
    7592   689.85    
    7593   691.73    
    7594   693.56    
    7595   695.12    
    7596   678.28    
    7597   681.41    
    7598   677.71    
    7599   644.18    
    7600   632.16    
    7601   353.90    
    7602   339.35    
    7603   402.85    
    7604   373.95    
    7605   387.48    
1

 ***** ANSYS - ENGINEERING ANALYSIS SYSTEM  RELEASE 15.0      *****
 ANSYS Academic Research                           
 00203145          VERSION=LINUX x64     10:48:11  OCT 01, 2014 CP=      4.632

                                                                               

 
  ***** POST1 NODAL DEGREE OF FREEDOM LISTING *****                            
 
  LOAD STEP=     1  SUBSTEP=     1                                             
   TIME=    1.0000      LOAD CASE=   0                                         
 
    NODE      VOLT  
    7606   370.63    
    7607   683.66    
    7608   692.32    
    7609   679.17    
    7610   673.63    
    7611   666.63    
    7612   658.87    
    7613   469.35    
    7614   476.17    
    7615   491.99    
    7616   490.89    
    7617   454.35    
    7618   442.84    
    7619   362.91    
    7620   361.19    
    7621   366.71    
    7622   382.29    
    7623   345.03    
    7624   372.11    
    7625   367.70    
    7626   644.76    
    7627   685.38    
    7628   663.47    
    7629   670.10    
    7630   660.30    
    7631   686.91    
    7632   684.95    
    7633   671.06    
    7634   693.45    
    7635   694.67    
    7636   692.91    
    7637   695.14    
    7638   692.89    
    7639   681.72    
    7640   677.67    
    7641   683.51    
    7642   681.30    
    7643   659.74    
    7644   670.84    
1

 ***** ANSYS - ENGINEERING ANALYSIS SYSTEM  RELEASE 15.0      *****
 ANSYS Academic Research                           
 00203145          VERSION=LINUX x64     10:48:11  OCT 01, 2014 CP=      4.632

                                                                               

 
  ***** POST1 NODAL DEGREE OF FREEDOM LISTING *****                            
 
  LOAD STEP=     1  SUBSTEP=     1                                             
   TIME=    1.0000      LOAD CASE=   0                                         
 
    NODE      VOLT  
    7645   692.89    
    7646   686.12    
    7647   683.60    
    7648   694.91    
    7649   316.11    
    7650   319.14    
    7651   315.33    
    7652   330.38    
    7653   323.37    
    7654   311.12    
    7655   312.73    
    7656   314.81    
    7657   317.16    
    7658   317.76    
    7659   306.19    
    7660   329.67    
    7661   330.83    
    7662   311.82    
    7663   306.84    
    7664   416.42    
    7665   379.51    
    7666   309.93    
    7667   362.93    
    7668   719.66    
    7669   312.10    
    7670   309.96    
    7671   306.68    
    7672   321.70    
    7673   316.08    
    7674   319.84    
    7675   356.93    
    7676   336.26    
    7677   348.75    
    7678   677.06    
    7679   681.26    
    7680   342.60    
    7681   332.82    
    7682   305.45    
    7683   304.63    
1

 ***** ANSYS - ENGINEERING ANALYSIS SYSTEM  RELEASE 15.0      *****
 ANSYS Academic Research                           
 00203145          VERSION=LINUX x64     10:48:11  OCT 01, 2014 CP=      4.634

                                                                               

 
  ***** POST1 NODAL DEGREE OF FREEDOM LISTING *****                            
 
  LOAD STEP=     1  SUBSTEP=     1                                             
   TIME=    1.0000      LOAD CASE=   0                                         
 
    NODE      VOLT  
    7684   605.92    
    7685   677.34    
    7686   679.30    
    7687   678.63    
    7688   329.57    
    7689   319.67    
    7690   336.20    
    7691   642.88    
    7692   678.38    
    7693   633.84    
    7694   617.62    
    7695   691.08    
    7696   691.05    
    7697   689.53    
    7698   694.93    
    7699   693.39    
    7700   677.25    
    7701   370.35    
    7702   469.45    
    7703   465.58    
    7704   396.87    
    7705   681.54    
    7706   691.23    
    7707   341.82    
    7708   322.39    
    7709   318.64    
    7710   319.59    
    7711   334.39    
    7712   320.94    
    7713   321.43    
    7714   317.87    
    7715   312.43    
    7716   584.60    
    7717   691.10    
    7718   643.90    
    7719   663.39    
    7720   306.35    
    7721   307.56    
    7722   324.89    
1

 ***** ANSYS - ENGINEERING ANALYSIS SYSTEM  RELEASE 15.0      *****
 ANSYS Academic Research                           
 00203145          VERSION=LINUX x64     10:48:11  OCT 01, 2014 CP=      4.634

                                                                               

 
  ***** POST1 NODAL DEGREE OF FREEDOM LISTING *****                            
 
  LOAD STEP=     1  SUBSTEP=     1                                             
   TIME=    1.0000      LOAD CASE=   0                                         
 
    NODE      VOLT  
    7723   307.63    
    7724   329.40    
    7725   322.36    
    7726   327.62    
    7727   320.88    
    7728   305.81    
    7729   306.65    
    7730   304.52    
    7731   309.87    
    7732   495.25    
    7733   494.17    
    7734   474.08    
    7735   410.97    
    7736   438.91    
    7737   357.03    
    7738   357.76    
    7739   335.39    
    7740   417.91    
    7741   692.49    
    7742   665.64    
    7743   680.12    
    7744   669.47    
    7745   678.90    
    7746   321.93    
    7747   355.98    
    7748   334.44    
    7749   321.29    
    7750   305.01    
    7751   304.67    
    7752   305.82    
    7753   309.16    
    7754   305.12    
    7755   325.92    
    7756   313.41    
    7757   342.23    
    7758   522.55    
    7759   505.38    
    7760   562.50    
    7761   688.30    
1

 ***** ANSYS - ENGINEERING ANALYSIS SYSTEM  RELEASE 15.0      *****
 ANSYS Academic Research                           
 00203145          VERSION=LINUX x64     10:48:11  OCT 01, 2014 CP=      4.634

                                                                               

 
  ***** POST1 NODAL DEGREE OF FREEDOM LISTING *****                            
 
  LOAD STEP=     1  SUBSTEP=     1                                             
   TIME=    1.0000      LOAD CASE=   0                                         
 
    NODE      VOLT  
    7762   691.11    
    7763   687.71    
    7764   694.94    
    7765   293.89    
    7766   296.10    
    7767   286.64    
    7768   679.64    
    7769   330.53    
    7770   314.44    
    7771   970.01    
    7772   995.28    
    7773   995.78    
    7774   991.05    
    7775   991.90    
    7776   996.62    
    7777   992.40    
    7778   517.77    
    7779   221.52    
    7780   210.67    
    7781   237.47    
    7782   232.38    
    7783   669.85    
    7784   684.68    
    7785   686.65    
    7786   986.83    
    7787   985.94    
    7788   991.92    
    7789   58.721    
    7790   69.575    
    7791   80.429    
    7792   692.63    
    7793   633.82    
    7794   612.69    
    7795   632.85    
    7796   648.20    
    7797   661.46    
    7798   188.96    
    7799   178.11    
    7800   199.82    
1

 ***** ANSYS - ENGINEERING ANALYSIS SYSTEM  RELEASE 15.0      *****
 ANSYS Academic Research                           
 00203145          VERSION=LINUX x64     10:48:11  OCT 01, 2014 CP=      4.636

                                                                               

 
  ***** POST1 NODAL DEGREE OF FREEDOM LISTING *****                            
 
  LOAD STEP=     1  SUBSTEP=     1                                             
   TIME=    1.0000      LOAD CASE=   0                                         
 
    NODE      VOLT  
    7801   494.26    
    7802   692.93    
    7803   694.08    
    7804   689.07    
    7805   680.51    
    7806   666.79    
    7807   684.35    
    7808   682.66    
    7809   687.89    
    7810   354.47    
    7811   342.95    
    7812   349.68    
    7813   305.58    
    7814   321.82    
    7815   320.34    
    7816   321.39    
    7817   102.14    
    7818   91.282    
    7819   740.78    
    7820   980.87    
    7821   996.62    
    7822   307.05    
    7823   692.47    
    7824   29.966    
    7825   37.800    
    7826   47.868    
    7827   762.38    
    7828   773.24    
    7829   315.53    
    7830   331.68    
    7831   317.95    
    7832   311.93    
    7833   508.42    
    7834   679.04    
    7835   353.99    
    7836   396.74    
    7837   112.99    
    7838   123.84    
    7839   696.40    
1

 ***** ANSYS - ENGINEERING ANALYSIS SYSTEM  RELEASE 15.0      *****
 ANSYS Academic Research                           
 00203145          VERSION=LINUX x64     10:48:11  OCT 01, 2014 CP=      4.636

                                                                               

 
  ***** POST1 NODAL DEGREE OF FREEDOM LISTING *****                            
 
  LOAD STEP=     1  SUBSTEP=     1                                             
   TIME=    1.0000      LOAD CASE=   0                                         
 
    NODE      VOLT  
    7840   322.71    
    7841   309.15    
    7842   306.59    
    7843   941.19    
    7844   930.33    
    7845   784.10    
    7846   307.24    
    7847   305.41    
    7848   310.67    
    7849   688.66    
    7850   694.59    
    7851   695.21    
    7852   4.7191    
    7853   4.2199    
    7854   3.3759    
    7855   7.5958    
    7856   4.7011    
    7857   521.18    
    7858   512.58    
    7859   606.20    
    7860   589.61    
    7861   621.22    
    7862   693.69    
    7863   320.51    
    7864   307.77    
    7865   580.44    
    7866   355.62    
    7867   919.47    
    7868   8.9210    
    7869   551.28    
    7870   789.14    
    7871   668.74    
    7872   678.98    
    7873   687.91    
    7874   685.21    
    7875   692.10    
    7876   401.62    
    7877   367.71    
    7878   19.112    
1

 ***** ANSYS - ENGINEERING ANALYSIS SYSTEM  RELEASE 15.0      *****
 ANSYS Academic Research                           
 00203145          VERSION=LINUX x64     10:48:11  OCT 01, 2014 CP=      4.636

                                                                               

 
  ***** POST1 NODAL DEGREE OF FREEDOM LISTING *****                            
 
  LOAD STEP=     1  SUBSTEP=     1                                             
   TIME=    1.0000      LOAD CASE=   0                                         
 
    NODE      VOLT  
    7879   13.141    
    7880   8.0770    
    7881   516.74    
    7882   520.89    
    7883   642.59    
    7884   659.69    
    7885   667.68    
    7886   677.63    
    7887   678.88    
    7888   485.66    
    7889   694.22    
    7890   688.55    
    7891   691.22    
    7892   693.24    
    7893   691.63    
    7894   678.89    
    7895   313.45    
    7896   321.07    
    7897   314.95    
    7898   306.37    
    7899   306.54    
    7900   696.48    
    7901   305.20    
    7902   167.26    
    7903   897.75    
    7904   908.61    
    7905   259.05    
    7906   269.10    
    7907   328.57    
    7908   312.16    
    7909   304.56    
    7910   692.74    
    7911   876.02    
    7912   886.89    
    7913   694.50    
    7914   696.26    
    7915   696.59    
    7916   134.70    
    7917   145.55    
1

 ***** ANSYS - ENGINEERING ANALYSIS SYSTEM  RELEASE 15.0      *****
 ANSYS Academic Research                           
 00203145          VERSION=LINUX x64     10:48:11  OCT 01, 2014 CP=      4.636

                                                                               

 
  ***** POST1 NODAL DEGREE OF FREEDOM LISTING *****                            
 
  LOAD STEP=     1  SUBSTEP=     1                                             
   TIME=    1.0000      LOAD CASE=   0                                         
 
    NODE      VOLT  
    7918   992.40    
    7919   991.07    
    7920   995.78    
    7921   995.29    
    7922   412.33    
    7923   693.71    
    7924   301.44    
    7925   478.36    
    7926   513.17    
    7927   512.14    
    7928   473.56    
    7929   481.58    
    7930   468.80    
    7931   688.24    
    7932   661.52    
    7933   685.49    
    7934   320.38    
    7935   321.30    
    7936   322.46    
    7937   376.51    
    7938   646.00    
    7939   679.22    
    7940   693.97    
    7941   678.14    
    7942   313.89    
    7943   313.58    
    7944   327.92    
    7945   311.33    
    7946   320.87    
    7947   321.50    
    7948   305.92    
    7949   307.25    
    7950   306.23    
    7951   307.41    
    7952   312.05    
    7953   315.29    
    7954   317.17    
    7955   332.73    
    7956   319.16    
1

 ***** ANSYS - ENGINEERING ANALYSIS SYSTEM  RELEASE 15.0      *****
 ANSYS Academic Research                           
 00203145          VERSION=LINUX x64     10:48:11  OCT 01, 2014 CP=      4.638

                                                                               

 
  ***** POST1 NODAL DEGREE OF FREEDOM LISTING *****                            
 
  LOAD STEP=     1  SUBSTEP=     1                                             
   TIME=    1.0000      LOAD CASE=   0                                         
 
    NODE      VOLT  
    7957   318.88    
    7958   314.06    
    7959   314.05    
    7960   337.19    
    7961   356.09    
    7962   311.42    
    7963   689.16    
    7964   304.57    
    7965   693.62    
    7966   693.36    
    7967   8.9390    
    7968   683.46    
    7969   248.26    
    7970   279.14    
    7971   854.30    
    7972   865.16    
    7973   459.00    
    7974   478.74    
    7975   471.36    
    7976   438.68    
    7977   315.86    
    7978   810.86    
    7979   800.00    
    7980   156.40    
    7981   321.56    
    7982   322.12    
    7983   319.91    
    7984   320.41    
    7985   366.63    
    7986   342.57    
    7987   321.70    
    7988   386.61    
    7989   598.76    
    7990   682.43    
    7991   684.36    
    7992   695.81    
    7993   695.38    
    7994   677.57    
    7995   679.32    
1

 ***** ANSYS - ENGINEERING ANALYSIS SYSTEM  RELEASE 15.0      *****
 ANSYS Academic Research                           
 00203145          VERSION=LINUX x64     10:48:11  OCT 01, 2014 CP=      4.638

                                                                               

 
  ***** POST1 NODAL DEGREE OF FREEDOM LISTING *****                            
 
  LOAD STEP=     1  SUBSTEP=     1                                             
   TIME=    1.0000      LOAD CASE=   0                                         
 
    NODE      VOLT  
    7996   693.49    
    7997   961.39    
    7998   471.24    
    7999   304.37    
    8000   697.77    
    8001   3.3759    
    8002   4.2199    
    8003   7.5958    
    8004   8.0950    
    8005   4.7011    
    8006   311.79    
    8007   672.59    
    8008   14.048    
    8009   19.112    
    8010   29.966    
    8011   843.44    
    8012   832.58    
    8013   510.52    
    8014   13.159    
    8015   678.82    
    8016   319.90    
    8017   336.64    
    8018   677.99    
    8019   595.74    
    8020   485.41    
    8021   677.87    
    8022   488.74    
    8023   305.86    
    8024   490.15    
    8025   691.00    
    8026   688.27    
    8027   308.29    
    8028   308.76    
    8029   307.04    
    8030   306.47    
    8031   322.37    
    8032   322.09    
    8033   821.72    
    8034   320.31    
1

 ***** ANSYS - ENGINEERING ANALYSIS SYSTEM  RELEASE 15.0      *****
 ANSYS Academic Research                           
 00203145          VERSION=LINUX x64     10:48:11  OCT 01, 2014 CP=      4.638

                                                                               

 
  ***** POST1 NODAL DEGREE OF FREEDOM LISTING *****                            
 
  LOAD STEP=     1  SUBSTEP=     1                                             
   TIME=    1.0000      LOAD CASE=   0                                         
 
    NODE      VOLT  
    8035   467.69    
    8036   995.29    
    8037   986.85    
    8038   751.58    
    8039   662.22    
    8040   677.21    
    8041   694.86    
    8042   576.53    
    8043   612.32    
    8044   508.60    
    8045   503.94    
    8046   545.28    

 MAXIMUM ABSOLUTE VALUES
 NODE         30
 VALUE    1000.0    
