
 LIST ALL SELECTED ELEMENTS.  (LIST NODES)
1

 ***** ANSYS - ENGINEERING ANALYSIS SYSTEM  RELEASE 15.0      *****
 ANSYS Academic Teaching Advanced                  
 00203145          VERSION=LINUX x64     08:23:48  AUG 20, 2014 CP=     14.622

                                                                               

 
    ELEM MAT TYP REL ESY SEC        NODES
 
       1   3   1   1   0   1    532  1945   551  2921  1922  3418  1844  3419
                               3420  3421
       2   3   1   1   0   1   2922  2923  2127  2924  3422  3423  3424  3425
                               3426  3427
       3   3   1   1   0   1    534   532  1945   551   533  1922  1921  1845
                               1844  3418
       4   3   1   1   0   1   2921  2925  1858  2026  3428  3429  3430  3431
                               3432  3433
       5   3   1   1   0   1   2926  2927  2928  2929  3434  3435  3436  3437
                               3438  3439
       6   3   1   1   0   1   2930  2931  2125  2932  3440  3441  3442  3443
                               3444  3445
       7   3   1   1   0   1   2931  2125  2932  2933  3441  3445  3444  3446
                               3447  3448
       8   3   1   1   0   1   2934  1803  1819  1774  3449  1378  3450  3451
                               1442  1302
       9   3   1   1   0   1    482  2932  2125  2933  3452  3445  2093  3453
                               3448  3447
      10   3   1   1   0   1   2928  2929  2927  2935  3439  3438  3435  3454
                               3455  3456
      11   3   1   1   0   1   2936  2937  1282  2938  3457  3458  3459  3460
                               3461  3462
      12   3   1   1   0   1   2936  2937  1719  1282  3457  3463  3464  3459
                               3458  3465
      13   3   1   1   0   1   2936  2937  2938  1720  3457  3461  3460  3466
                               3467  3468
      14   3   1   1   0   1   2936  1719  2937  1720  3464  3463  3457  3466
                               1619  3467
      15   3   1   1   0   1    838  1282   836  1719  1249  1250   837  1694
                               3465  1693
      16   3   1   1   0   1   2939  2940  2941  2942  3469  3470  3471  3472
                               3473  3474
      17   3   1   1   0   1   2943  2944  2945  2946  3475  3476  3477  3478
                               3479  3480
      18   3   1   1   0   1   2947  2948  1822  1815  3481  3482  3483  3484
                               3485  1356
      19   3   1   1   0   1   2944  2949  2950  2951  3486  3487  3488  3489
                               3490  3491
      20   3   1   1   0   1   2951  2944  2952  2953  3489  3492  3493  3494
                               3495  3496
      21   3   1   1   0   1   2954  2955  2956  2957  3497  3498  3499  3500
                               3501  3502
      22   3   1   1   0   1   2944  2953  2958  2952  3495  3503  3504  3492
                               3496  3505
      23   3   1   1   0   1   2944  2958  2959  2946  3504  3506  3507  3479
                               3508  3509
      24   3   1   1   0   1   2952  2951  2960  2941  3493  3510  3511  3512
                               3513  3514
      25   3   1   1   0   1   2944  2961  2962  2941  3515  3516  3517  3518
                               3519  3520
1

 ***** ANSYS - ENGINEERING ANALYSIS SYSTEM  RELEASE 15.0      *****
 ANSYS Academic Teaching Advanced                  
 00203145          VERSION=LINUX x64     08:23:48  AUG 20, 2014 CP=     14.623

                                                                               

 
    ELEM MAT TYP REL ESY SEC        NODES
 
      26   3   1   1   0   1   2963  2964  2965  2966  3521  3522  3523  3524
                               3525  3526
      27   3   1   1   0   1   2963  2967  2968  2969  3527  3528  3529  3530
                               3531  3532
      28   3   1   1   0   1   2963  2967  2970  2971  3527  3533  3534  3535
                               3536  3537
      29   3   1   1   0   1   2963  2966  2972  2973  3524  3538  3539  3540
                               3541  3542
      30   3   1   1   0   1   2963  2974  2926  2928  3543  3544  3545  3546
                               3547  3436
      31   3   1   1   0   1   2963  2971  2926  2974  3535  3548  3545  3543
                               3549  3544
      32   3   1   1   0   1   2975  1763  1772  1735  3550  1501  3551  3552
                               1543  1546
      33   3   1   1   0   1   2976  2977  2978  2979  3553  3554  3555  3556
                               3557  3558
      34   3   1   1   0   1   2980  2976  2981  2982  3559  3560  3561  3562
                               3563  3564
      35   3   1   1   0   1   2983  2976  2984  2982  3565  3566  3567  3568
                               3563  3569
      36   3   1   1   0   1   2981  2982  1056  2980  3564  3570  3571  3561
                               3562  3572
      37   3   1   1   0   1   2976  2984  2979  2978  3566  3573  3556  3555
                               3574  3558
      38   3   1   1   0   1   2985  2976  2984  2983  3575  3566  3576  3577
                               3565  3567
      39   3   1   1   0   1   2986  2967  2987  2988  3578  3579  3580  3581
                               3582  3583
      40   3   1   1   0   1   2986  2989  2990  2991  3584  3585  3586  3587
                               3588  3589
      41   3   1   1   0   1   2986  2992  2993  2987  3590  3591  3592  3580
                               3593  3594
      42   3   1   1   0   1   2994  2995  2996  2997  3595  3596  3597  3598
                               3599  3600
      43   3   1   1   0   1   2994  2998  2997  2999  3601  3602  3598  3603
                               3604  3605
      44   3   1   1   0   1   2942  3000  3001  3002  3606  3607  3608  3609
                               3610  3611
      45   3   1   1   0   1   2942  2939  3003  3004  3472  3612  3613  3614
                               3615  3616
      46   3   1   1   0   1   3005  2753   879   877  3617  2736  3618  3619
                               2737   878
      47   3   1   1   0   1   2942  3006  2941  2995  3620  3621  3474  3622
                               3623  3624
      48   3   1   1   0   1   2994  3007  3000  3002  3625  3626  3627  3628
                               3629  3610
      49   3   1   1   0   1   2994  2998  3008  3006  3601  3630  3631  3632
                               3633  3634
      50   3   1   1   0   1   2995  3009  2962  3010  3635  3636  3637  3638
                               3639  3640
1

 ***** ANSYS - ENGINEERING ANALYSIS SYSTEM  RELEASE 15.0      *****
 ANSYS Academic Teaching Advanced                  
 00203145          VERSION=LINUX x64     08:23:48  AUG 20, 2014 CP=     14.624

                                                                               

 
    ELEM MAT TYP REL ESY SEC        NODES
 
      51   3   1   1   0   1   3011   490  2132  2131  3641  2101  3642  3643
                               2102  2084
      52   3   1   1   0   1   2942  2939  2940  3003  3472  3469  3473  3613
                               3612  3644
      53   3   1   1   0   1   2995  2941  2962  2961  3624  3520  3637  3645
                               3519  3516
      54   3   1   1   0   1   2995  2961  2962  3012  3645  3516  3637  3646
                               3647  3648
      55   3   1   1   0   1   2994  2995  3013  3014  3595  3649  3650  3651
                               3652  3653
      56   3   1   1   0   1   3015  3016  3017  3018  3654  3655  3656  3657
                               3658  3659
      57   3   1   1   0   1   3016  3019  3020  3021  3660  3661  3662  3663
                               3664  3665
      58   3   1   1   0   1   3016  3022  3019  3021  3666  3667  3660  3663
                               3668  3664
      59   3   1   1   0   1   3016  3020  3019  3023  3662  3661  3660  3669
                               3670  3671
      60   3   1   1   0   1   3024  3018  3025  3019  3672  3673  3674  3675
                               3676  3677
      61   3   1   1   0   1   3014  3016  3017  3015  3678  3655  3679  3680
                               3654  3656
      62   3   1   1   0   1   3016  3019  3022  3017  3660  3667  3666  3655
                               3681  3682
      63   3   1   1   0   1   3016  3026  3014  3027  3683  3684  3678  3685
                               3686  3687
      64   3   1   1   0   1   3028  3029  3030  3031  3688  3689  3690  3691
                               3692  3693
      65   3   1   1   0   1   3028  3032  2034  3030  3694  3695  3696  3690
                               3697  3698
      66   3   1   1   0   1   3028  3033  2035  3034  3699  3700  3701  3702
                               3703  3704
      67   3   1   1   0   1   3035  3036  1287  2960  3705  3706  3707  3708
                               3709  3710
      68   3   1   1   0   1   3037  3038  3039  3035  3711  3712  3713  3714
                               3715  3716
      69   3   1   1   0   1    982  3037  3038  3039  3717  3711  3718  3719
                               3713  3712
      70   3   1   1   0   1   3035  3040  3041  3042  3720  3721  3722  3723
                               3724  3725
      71   3   1   1   0   1   3035  3041  3036  2960  3722  3726  3705  3708
                               3727  3709
      72   3   1   1   0   1   3035  3041  3039  3042  3722  3728  3716  3723
                               3725  3729
      73   3   1   1   0   1   3035  3040  3036  3041  3720  3730  3705  3722
                               3721  3726
      74   3   1   1   0   1   2931  2930  2125  2027  3440  3442  3441  3731
                               3732  3733
      75   3   1   1   0   1    608  2933   480  2931  3734  3735  2317  3736
                               3446  3737
1

 ***** ANSYS - ENGINEERING ANALYSIS SYSTEM  RELEASE 15.0      *****
 ANSYS Academic Teaching Advanced                  
 00203145          VERSION=LINUX x64     08:23:48  AUG 20, 2014 CP=     14.625

                                                                               

 
    ELEM MAT TYP REL ESY SEC        NODES
 
      76   3   1   1   0   1   2125  2931   606   480  3441  3738  3739  2092
                               3737  2318
      77   3   1   1   0   1   2931  3043  2789  3044  3740  3741  3742  3743
                               3744  3745
      78   3   1   1   0   1   2931  2932  3044   608  3444  3746  3743  3736
                               3747  3748
      79   3   1   1   0   1   2788  3044   608  2789  3749  3748  2666  2625
                               3745  2665
      80   3   1   1   0   1   3044   608  2789  2931  3748  2665  3745  3743
                               3736  3742
      81   3   1   1   0   1   3045  3046  3047  3048  3750  3751  3752  3753
                               3754  3755
      82   3   1   1   0   1   2988  3046  3049  3045  3756  3757  3758  3759
                               3750  3760
      83   3   1   1   0   1   3050  3051  3052  3053  3761  3762  3763  3764
                               3765  3766
      84   3   1   1   0   1   3045  3054  3055  3056  3767  3768  3769  3770
                               3771  3772
      85   3   1   1   0   1   3045  3046  3048  3055  3750  3754  3753  3769
                               3773  3774
      86   3   1   1   0   1   3057  2303  2301  2302  3775  2182  3776  3777
                               2188  2181
      87   3   1   1   0   1   3058  2760  3059  2759  3778  3779  3780  3781
                               2653  3782
      88   3   1   1   0   1   3058  3059  2760  2773  3780  3779  3778  3783
                               3784  2640
      89   3   1   1   0   1   3060  2809  2955  3058  3785  3786  3787  3788
                               3789  3790
      90   3   1   1   0   1   3061  3060  2809  2955  3791  3785  3792  3793
                               3787  3786
      91   3   1   1   0   1   3058  3059  3060  2759  3780  3794  3788  3781
                               3782  3795
      92   3   1   1   0   1   3058  3060  2809  2800  3788  3785  3789  3796
                               3797  2538
      93   3   1   1   0   1   3058  3059  2290  2956  3780  3798  3799  3800
                               3801  3802
      94   3   1   1   0   1   3062  1786  1772  1763  3803  1481  3804  3805
                               1464  1501
      95   3   1   1   0   1   1829   825  2276    24  1323  2275  3806  1324
                                826  2274
      96   3   1   1   0   1   2756  2757  1279  3063  2655  3807  3808  3809
                               3810  3811
      97   3   1   1   0   1   3063  2864  1279  2037  3812  3813  3811  3814
                               3815  3816
      98   3   1   1   0   1   3063  3064  2756  2798  3817  3818  3809  3819
                               3820  2606
      99   3   1   1   0   1   3063  3031  3064  2798  3821  3822  3817  3819
                               3823  3820
     100   3   1   1   0   1   3065  3066  2986  2991  3824  3825  3826  3827
                               3828  3587
1

 ***** ANSYS - ENGINEERING ANALYSIS SYSTEM  RELEASE 15.0      *****
 ANSYS Academic Teaching Advanced                  
 00203145          VERSION=LINUX x64     08:23:48  AUG 20, 2014 CP=     14.626

                                                                               

 
    ELEM MAT TYP REL ESY SEC        NODES
 
     101   3   1   1   0   1   3065  3067  3068  2991  3829  3830  3831  3827
                               3832  3833
     102   3   1   1   0   1     40  2026  2921  1858  1973  3431  3834  1840
                               3433  3430
     103   3   1   1   0   1   3069  3070  3004  2926  3835  3836  3837  3838
                               3839  3840
     104   3   1   1   0   1   3069  3070  2926  2971  3835  3839  3838  3841
                               3842  3548
     105   3   1   1   0   1   3070  3069  3071  2971  3835  3843  3844  3842
                               3841  3845
     106   3   1   1   0   1   2971  3069  3071  3072  3841  3843  3845  3846
                               3847  3848
     107   3   1   1   0   1   3069  3072  2858  3071  3847  3849  3850  3843
                               3848  3851
     108   3   1   1   0   1    992   975  1059  3073   906  3852  3853  3854
                               3855  3856
     109   3   1   1   0   1   3054  3056  2988  2967  3771  3857  3858  3859
                               3860  3582
     110   3   1   1   0   1   3074  3075  3057  3054  3861  3862  3863  3864
                               3865  3866
     111   3   1   1   0   1   3054  3055  3076  3074  3768  3867  3868  3864
                               3869  3870
     112   3   1   1   0   1   3057  3054  2987  2954  3866  3871  3872  3873
                               3874  3875
     113   3   1   1   0   1   3045  3054  3056  2988  3767  3771  3770  3759
                               3858  3857
     114   3   1   1   0   1   3045  3077  3056  3055  3876  3877  3770  3769
                               3878  3772
     115   3   1   1   0   1   3056  2967  2968  2974  3860  3528  3879  3880
                               3881  3882
     116   3   1   1   0   1   3056  2967  2974  3066  3860  3881  3880  3883
                               3884  3885
     117   3   1   1   0   1   3036  3078  3079  3080  3886  3887  3888  3889
                               3890  3891
     118   3   1   1   0   1   3036  3037  1287  3079  3892  3893  3706  3888
                               3894  3895
     119   3   1   1   0   1   3036  3078  3081  3079  3886  3896  3897  3888
                               3887  3898
     120   3   1   1   0   1   3018  3016  3019  3024  3658  3660  3676  3672
                               3899  3675
     121   3   1   1   0   1   3000  2994  2942  3015  3627  3900  3606  3901
                               3902  3903
     122   3   1   1   0   1   3015  3023  3024  3071  3904  3905  3906  3907
                               3908  3909
     123   3   1   1   0   1   3015  3018  3070  3071  3657  3910  3911  3907
                               3912  3844
     124   3   1   1   0   1   3017  3015  3082  3014  3656  3913  3914  3679
                               3680  3915
     125   3   1   1   0   1   3015  3082  3014  3013  3913  3915  3680  3916
                               3917  3653
1

 ***** ANSYS - ENGINEERING ANALYSIS SYSTEM  RELEASE 15.0      *****
 ANSYS Academic Teaching Advanced                  
 00203145          VERSION=LINUX x64     08:23:48  AUG 20, 2014 CP=     14.626

                                                                               

 
    ELEM MAT TYP REL ESY SEC        NODES
 
     126   3   1   1   0   1   3083  1829  1745  1724  3918  1308  3919  3920
                               1321  1297
     127   3   1   1   0   1   2995  2961  3012  2997  3645  3647  3646  3599
                               3921  3922
     128   3   1   1   0   1   3084  1762  1793  1786  3923  1466  3924  3925
                               1465  1424
     129   3   1   1   0   1   3085  3086  3087  3088  3926  3927  3928  3929
                               3930  3931
     130   3   1   1   0   1   2937  3089  2943  1290  3932  3933  3934  3935
                               3936  3937
     131   3   1   1   0   1   2937  3089  3090  3091  3932  3938  3939  3940
                               3941  3942
     132   3   1   1   0   1   2937  1761  2938  1720  3943  3944  3461  3467
                               1570  3468
     133   3   1   1   0   1   3092  2937  2943  3093  3945  3934  3946  3947
                               3948  3949
     134   3   1   1   0   1   2937  3093  3092  3094  3948  3947  3945  3950
                               3951  3952
     135   3   1   1   0   1   3029  2999  3095  3096  3953  3954  3955  3956
                               3957  3958
     136   3   1   1   0   1   3094  1761  3090  2937  3959  3960  3961  3950
                               3943  3939
     137   3   1   1   0   1   3097   529   527  1150  3962   528  3963  3964
                               1131  1130
     138   3   1   1   0   1   3097  3098  3079  1160  3965  3966  3967  3968
                               3969  3970
     139   3   1   1   0   1   3097  3099   752  2774  3971  3972  3973  3974
                               3975  2694
     140   3   1   1   0   1   3097  3099  2774  2868  3971  3975  3974  3976
                               3977  2349
     141   3   1   1   0   1   3097   529  2894   754  3962  2869  3978  3979
                               2891  2870
     142   3   1   1   0   1   3097  3099  2868  1273  3971  3977  3976  3980
                               3981  3982
     143   3   1   1   0   1   3097  3099  1273  3079  3971  3981  3980  3967
                               3983  3984
     144   3   1   1   0   1   3097  2894  1150  1273  3978  3985  3964  3980
                               3986  3987
     145   3   1   1   0   1   3100  3101  2967  2969  3988  3989  3990  3991
                               3992  3531
     146   3   1   1   0   1   2975  1736  3102  1763  3993  3994  3995  3550
                               1544  3996
     147   3   1   1   0   1   3103  2969  3101  3100  3997  3992  3998  3999
                               3991  3988
     148   3   1   1   0   1   3104  2992  2993  2986  4000  3591  4001  4002
                               3590  3592
     149   3   1   1   0   1   2986  2967  2988  3066  3578  3582  3581  3825
                               3884  4003
     150   3   1   1   0   1   2986  2970  3105  2967  4004  4005  4006  3578
                               3533  4007
1

 ***** ANSYS - ENGINEERING ANALYSIS SYSTEM  RELEASE 15.0      *****
 ANSYS Academic Teaching Advanced                  
 00203145          VERSION=LINUX x64     08:23:48  AUG 20, 2014 CP=     14.627

                                                                               

 
    ELEM MAT TYP REL ESY SEC        NODES
 
     151   3   1   1   0   1    629  1945    40  2026  1937  1865   630  2012
                               4008  1973
     152   3   1   1   0   1   2921  2925   551   549  3428  4009  3421  4010
                               4011   550
     153   3   1   1   0   1   2940  1289  1275  1294  4012  1197  4013  4014
                               1188  1198
     154   3   1   1   0   1   2026  2032  3106  2925  1966  4015  4016  3432
                               4017  4018
     155   3   1   1   0   1   2921  1858  2925   549  3430  3429  3428  4010
                               1839  4011
     156   3   1   1   0   1   2921   532   549   551  3419  1843  4010  3421
                               1844   550
     157   3   1   1   0   1   2925  3107  3106  3108  4019  4020  4018  4021
                               4022  4023
     158   3   1   1   0   1   2925  3107  1752  2975  4019  4024  4025  4026
                               4027  4028
     159   3   1   1   0   1   2998  3109  1278  3110  4029  4030  4031  4032
                               4033  4034
     160   3   1   1   0   1   2026  1828  1734  2925  4035  1325  4036  3432
                               4037  4038
     161   3   1   1   0   1   2925   549  1858    42  4011  1839  3429  4039
                                548  1841
     162   3   1   1   0   1   2925  3111   551  3108  4040  4041  4009  4021
                               4042  4043
     163   3   1   1   0   1   2925   549    42  1828  4011   548  4039  4037
                               1327  1328
     164   3   1   1   0   1   3112  2939  3080  3113  4044  4045  4046  4047
                               4048  4049
     165   3   1   1   0   1   3112  2939  2929  3080  4044  4050  4051  4046
                               4045  4052
     166   3   1   1   0   1   3112  2949  2939  2941  4053  4054  4044  4055
                               4056  3471
     167   3   1   1   0   1   3112  2949  2929  2939  4053  4057  4051  4044
                               4054  4050
     168   3   1   1   0   1   3112  3041  3040  2929  4058  3721  4059  4051
                               4060  4061
     169   3   1   1   0   1   1055  3114  1061  3115  4062  4063   997  4064
                               4065  4066
     170   3   1   1   0   1   3116  3117  3118  3119  4067  4068  4069  4070
                               4071  4072
     171   3   1   1   0   1   3115  3120  2867  1055  4073  4074  4075  4064
                               4076  4077
     172   3   1   1   0   1   3121  3115  1055  3120  4078  4064  4079  4080
                               4073  4076
     173   3   1   1   0   1   3114  3115  1055  3121  4065  4064  4062  4081
                               4078  4079
     174   3   1   1   0   1   3115  3120  3121  3122  4073  4080  4078  4082
                               4083  4084
     175   3   1   1   0   1   3029  3123  3124  3125  4085  4086  4087  4088
                               4089  4090
1

 ***** ANSYS - ENGINEERING ANALYSIS SYSTEM  RELEASE 15.0      *****
 ANSYS Academic Teaching Advanced                  
 00203145          VERSION=LINUX x64     08:23:48  AUG 20, 2014 CP=     14.628

                                                                               

 
    ELEM MAT TYP REL ESY SEC        NODES
 
     176   3   1   1   0   1   3029  3032  3030  3126  4091  3697  3689  4092
                               4093  4094
     177   3   1   1   0   1   3029  2999  3096  3110  3953  3957  3956  4095
                               4096  4097
     178   3   1   1   0   1   3028  3029  3127  3032  3688  4098  4099  3694
                               4091  4100
     179   3   1   1   0   1   3028  3030  3029  3032  3690  3689  3688  3694
                               3697  4091
     180   3   1   1   0   1   3028  3127  3029  3124  4099  4098  3688  4101
                               4102  4087
     181   3   1   1   0   1   3128  3129  3130  3102  4103  4104  4105  4106
                               4107  4108
     182   3   1   1   0   1   3128  3126  3131  3129  4109  4110  4111  4103
                               4112  4113
     183   3   1   1   0   1   2925  3128  3107  2975  4114  4115  4019  4026
                               4116  4027
     184   3   1   1   0   1   3128  3129  2032  3132  4103  4117  4118  4119
                               4120  4121
     185   3   1   1   0   1   3128  3129  2975  2032  4103  4122  4116  4118
                               4117  4123
     186   3   1   1   0   1   3128  3133  3107  3062  4124  4125  4115  4126
                               4127  4128
     187   3   1   1   0   1   3128  3130  3129  3131  4105  4104  4103  4111
                               4129  4113
     188   3   1   1   0   1   2986  3065  2990  3134  3826  4130  3586  4131
                               4132  4133
     189   3   1   1   0   1   2992  3104  3135  3101  4000  4134  4135  4136
                               4137  4138
     190   3   1   1   0   1   2963  2973  2971  2970  3540  4139  3535  3534
                               4140  3537
     191   3   1   1   0   1   2967  2965  2970  3105  4141  4142  3533  4007
                               4143  4005
     192   3   1   1   0   1   2945  3136  3009  3092  4144  4145  4146  4147
                               4148  4149
     193   3   1   1   0   1   2945  2950  3137  3138  4150  4151  4152  4153
                               4154  4155
     194   3   1   1   0   1   2945  3012  2943  3092  4156  4157  3477  4147
                               4158  3946
     195   3   1   1   0   1   2945  3139  3136  3092  4159  4160  4144  4147
                               4161  4148
     196   3   1   1   0   1   3140   544   542   563  4162   543  4163  4164
                               1842  1855
     197   3   1   1   0   1   3141  3140  1947  1957  4165  4166  4167  4168
                               4169  1900
     198   3   1   1   0   1   3140  3142  1746   561  4170  4171  4172  4173
                               4174  1640
     199   3   1   1   0   1   3140  1947   544   563  4166  1934  4162  4164
                               4175  1842
     200   3   1   1   0   1   3140  1949   561   542  4176  4177  4173  4163
                               1929  1854
1

 ***** ANSYS - ENGINEERING ANALYSIS SYSTEM  RELEASE 15.0      *****
 ANSYS Academic Teaching Advanced                  
 00203145          VERSION=LINUX x64     08:23:48  AUG 20, 2014 CP=     14.629

                                                                               

 
    ELEM MAT TYP REL ESY SEC        NODES
 
     201   3   1   1   0   1   3140  1746  3083   563  4172  4178  4179  4164
                               1639  4180
     202   3   1   1   0   1   1957  3140  1949  3143  4169  4176  1864  4181
                               4182  4183
     203   3   1   1   0   1   3140  3142  1949  3143  4170  4184  4176  4182
                               4185  4183
     204   3   1   1   0   1   3144  3145  2131  2139  4186  4187  4188  4189
                               4190  2068
     205   3   1   1   0   1   2934  1819  1803  1817  3450  1378  3449  4191
                               1358  1300
     206   3   1   1   0   1   3115  2799  3120  3060  4192  4193  4073  4194
                               4195  4196
     207   3   1   1   0   1   3144  3146  3025  3011  4197  4198  4199  4200
                               4201  4202
     208   3   1   1   0   1   3144  3147  3145  2139  4203  4204  4186  4189
                               4205  4190
     209   3   1   1   0   1   3144  2782  3148  3149  4206  4207  4208  4209
                               4210  4211
     210   3   1   1   0   1   3144  3150  3146  3149  4212  4213  4197  4209
                               4214  4215
     211   3   1   1   0   1   3144  3025  3146  3150  4199  4198  4197  4212
                               4216  4213
     212   3   1   1   0   1   3144  3151  3152  3147  4217  4218  4219  4203
                               4220  4221
     213   3   1   1   0   1   3153  1066  1827  1713  4222  4223  4224  4225
                               4226  1329
     214   3   1   1   0   1   3145  3154  3067  3144  4227  4228  4229  4186
                               4230  4231
     215   3   1   1   0   1   3144  3025  3151  3011  4199  4232  4217  4200
                               4202  4233
     216   3   1   1   0   1   3146  2822  3150  2783  4234  4235  4213  4236
                               2526  4237
     217   3   1   1   0   1    622  2782  3148  3144  2679  4207  4238  4239
                               4206  4208
     218   3   1   1   0   1   2131   620  2130  3145  4240  4241  2085  4187
                               4242  4243
     219   3   1   1   0   1   3155   990   989   983  4244   911  4245  4246
                                919   920
     220   3   1   1   0   1    620  3144  3011  3146  4247  4200  4248  4249
                               4197  4201
     221   3   1   1   0   1   3146   618  3025  3011  4250  4251  4198  4201
                               4252  4202
     222   3   1   1   0   1   3146  3011   620   618  4201  4248  4249  4250
                               4252   619
     223   3   1   1   0   1   3156  3153  2977  3157  4253  4254  4255  4256
                               4257  4258
     224   3   1   1   0   1   3153  1827  1733  1713  4224  1311  4259  4225
                               1329  1606
     225   3   1   1   0   1   3153  3156  1754  1733  4253  4260  4261  4259
                               4262  1547
1

 ***** ANSYS - ENGINEERING ANALYSIS SYSTEM  RELEASE 15.0      *****
 ANSYS Academic Teaching Advanced                  
 00203145          VERSION=LINUX x64     08:23:48  AUG 20, 2014 CP=     14.629

                                                                               

 
    ELEM MAT TYP REL ESY SEC        NODES
 
     226   3   1   1   0   1   3153  2977  1064  1058  4254  4263  4264  4265
                               4266  1000
     227   3   1   1   0   1   3153  1754  3156  2977  4261  4260  4253  4254
                               4267  4255
     228   3   1   1   0   1   3153  2977  1058  1713  4254  4266  4265  4225
                               4268  4269
     229   3   1   1   0   1   3059  2773  2307  2863  3784  4270  4271  4272
                               2346  4273
     230   3   1   1   0   1   3059  2773  2863  2760  3784  2346  4272  3779
                               2640  2370
     231   3   1   1   0   1   3059  3158  1061  1062  4274  4275  4276  4277
                               4278  1026
     232   3   1   1   0   1   3059  2290   105   107  3798  2223  4279  4280
                               2224   106
     233   3   1   1   0   1   3059  3158  2305  2290  4274  4281  4282  3798
                               4283  2175
     234   3   1   1   0   1   3059  2307  2290   107  4271  2161  3798  4280
                               2163  2224
     235   3   1   1   0   1   3059  3158  2290  2956  4274  4283  3798  3801
                               4284  3802
     236   3   1   1   0   1   3159  1782  1810  1781  4285  1426  4286  4287
                               1484  1425
     237   3   1   1   0   1   3005   879  1277   877  3618  1262  4288  3619
                                878  1261
     238   3   1   1   0   1   3160  1158  3161  1146  4289  4290  4291  4292
                               1098  4293
     239   3   1   1   0   1   3160  3037  1146  3081  4294  4295  4292  4296
                               4297  4298
     240   3   1   1   0   1     92  1279    13  2037  1233  1176    91  1982
                               3816  1984
     241   3   1   1   0   1   3160  3098  1160  3079  4299  3969  4300  4301
                               3966  3970
     242   3   1   1   0   1   3160  3078  3098  3079  4302  4303  4299  4301
                               3887  3966
     243   3   1   1   0   1   3079  3037  1162  3160  3894  4304  4305  4301
                               4294  4306
     244   3   1   1   0   1   2942  2949  2941  2939  4307  4056  3474  3472
                               4054  3471
     245   3   1   1   0   1   2944  2959  2951  2950  3507  4308  3489  3488
                               4309  3491
     246   3   1   1   0   1   2944  2949  2951  2941  3486  3490  3489  3518
                               4056  3513
     247   3   1   1   0   1   3112  2949  2951  2929  4053  3490  4310  4051
                               4057  4311
     248   3   1   1   0   1   2951  2950  3051  2949  3491  4312  4313  3490
                               3487  4314
     249   3   1   1   0   1   2949  3070  3013  3162  4315  4316  4317  4318
                               4319  4320
     250   3   1   1   0   1   2949  3163  2929  3162  4321  4322  4057  4318
                               4323  4324
1

 ***** ANSYS - ENGINEERING ANALYSIS SYSTEM  RELEASE 15.0      *****
 ANSYS Academic Teaching Advanced                  
 00203145          VERSION=LINUX x64     08:23:48  AUG 20, 2014 CP=     14.630

                                                                               

 
    ELEM MAT TYP REL ESY SEC        NODES
 
     251   3   1   1   0   1   3164  3165  3166  3167  4325  4326  4327  4328
                               4329  4330
     252   3   1   1   0   1   3164  3168  3169  3170  4331  4332  4333  4334
                               4335  4336
     253   3   1   1   0   1   3164  3169  3171  3172  4333  4337  4338  4339
                               4340  4341
     254   3   1   1   0   1   3164  3167  3171  3173  4328  4342  4338  4343
                               4344  4345
     255   3   1   1   0   1   2957  3122  3174  3116  4346  4347  4348  4349
                               4350  4351
     256   3   1   1   0   1   3175  3176  3177  3178  4352  4353  4354  4355
                               4356  4357
     257   3   1   1   0   1   3175  3176  3179  2927  4352  4358  4359  4360
                               4361  4362
     258   3   1   1   0   1   3175  3180  3181  3182  4363  4364  4365  4366
                               4367  4368
     259   3   1   1   0   1   3175  3042  2927  3183  4369  4370  4360  4371
                               4372  4373
     260   3   1   1   0   1   3178  3175  3176  3179  4355  4352  4356  4374
                               4359  4358
     261   3   1   1   0   1   3175  3184  3179  3178  4375  4376  4359  4355
                               4377  4374
     262   3   1   1   0   1   3175  3042  3183  3161  4369  4372  4371  4378
                               4379  4380
     263   3   1   1   0   1   3184  3161  1159  3175  4381  4382  4383  4375
                               4378  4384
     264   3   1   1   0   1   3185  3057  2306  2992  4385  4386  4387  4388
                               4389  4390
     265   3   1   1   0   1   3186  3187  3188  1775  4391  4392  4393  4394
                               4395  4396
     266   3   1   1   0   1   2992  2987  2954  3057  3593  3875  4397  4389
                               3872  3873
     267   3   1   1   0   1   2992  3100  2986  3104  4398  4399  3590  4000
                               4400  4002
     268   3   1   1   0   1   2992  2306  3189  2993  4390  4401  4402  3591
                               4403  4404
     269   3   1   1   0   1   3190  2953  3191  1783  4405  4406  4407  4408
                               4409  4410
     270   3   1   1   0   1   3190  1773  3192  3053  4411  4412  4413  4414
                               4415  4416
     271   3   1   1   0   1   3190  2953  1783  3053  4405  4409  4408  4414
                               4417  4418
     272   3   1   1   0   1   3190  3193  1773  1738  4419  4420  4411  4421
                               4422  1540
     273   3   1   1   0   1   3194  3195  3196  2847  4423  4424  4425  4426
                               4427  4428
     274   3   1   1   0   1   3194  3197  2797  2796  4429  4430  4431  4432
                               4433  2549
     275   3   1   1   0   1   3194  2796  3198  3197  4432  4434  4435  4429
                               4433  4436
1

 ***** ANSYS - ENGINEERING ANALYSIS SYSTEM  RELEASE 15.0      *****
 ANSYS Academic Teaching Advanced                  
 00203145          VERSION=LINUX x64     08:23:48  AUG 20, 2014 CP=     14.631

                                                                               

 
    ELEM MAT TYP REL ESY SEC        NODES
 
     276   3   1   1   0   1   3194  2797  3197  3195  4431  4430  4429  4423
                               4437  4438
     277   3   1   1   0   1   3199  3200  1769  1730  4439  4440  4441  4442
                               4443  1553
     278   3   1   1   0   1   3199  3201  1771  1800  4444  4445  4446  4447
                               4448  1450
     279   3   1   1   0   1   3199  2985  3202  3203  4449  4450  4451  4452
                               4453  4454
     280   3   1   1   0   1   3199  3201  1800  3204  4444  4448  4447  4455
                               4456  4457
     281   3   1   1   0   1   3199  3204  3202  3201  4455  4458  4451  4444
                               4456  4459
     282   3   1   1   0   1   3199  3204  1769  3205  4455  4460  4441  4461
                               4462  4463
     283   3   1   1   0   1   2955  2954  3206  2957  3497  4464  4465  3501
                               3500  4466
     284   3   1   1   0   1   3207  1818  1817  1803  4467  1360  4468  4469
                               1373  1300
     285   3   1   1   0   1   2957  3208  3122  2956  4470  4471  4346  3502
                               4472  4473
     286   3   1   1   0   1   2955  2957  3116  2956  3501  4349  4474  3498
                               3502  4475
     287   3   1   1   0   1   3116  2955  3061  3209  4474  3793  4476  4477
                               4478  4479
     288   3   1   1   0   1   2957  3208  3210  3174  4470  4480  4481  4348
                               4482  4483
     289   3   1   1   0   1   3207  1817  1818  1797  4468  1360  4467  4484
                               1385  1384
     290   3   1   1   0   1   3210  2957  2954  3208  4481  3500  4485  4480
                               4470  4486
     291   3   1   1   0   1   1147  3039  3211  3081  4487  4488  4489  4490
                               4491  4492
     292   3   1   1   0   1   2957  3116  3212  3209  4349  4493  4494  4495
                               4477  4496
     293   3   1   1   0   1   2957  3212  3116  3119  4494  4493  4349  4497
                               4498  4070
     294   3   1   1   0   1   3213  3214  2924  3215  4499  4500  4501  4502
                               4503  4504
     295   3   1   1   0   1   3216  3217  3218  2968  4505  4506  4507  4508
                               4509  4510
     296   3   1   1   0   1   3176  2968  3219  3218  4511  4512  4513  4514
                               4510  4515
     297   3   1   1   0   1   3176  3179  2968  3217  4358  4516  4511  4517
                               4518  4509
     298   3   1   1   0   1   3176  3179  3217  3178  4358  4518  4517  4356
                               4374  4519
     299   3   1   1   0   1   3220  3055  3074  3076  4520  3869  4521  4522
                               3867  3870
     300   3   1   1   0   1   3160  3037  1162  1146  4294  4304  4306  4292
                               4295  1074
1

 ***** ANSYS - ENGINEERING ANALYSIS SYSTEM  RELEASE 15.0      *****
 ANSYS Academic Teaching Advanced                  
 00203145          VERSION=LINUX x64     08:23:48  AUG 20, 2014 CP=     14.632

                                                                               

 
    ELEM MAT TYP REL ESY SEC        NODES
 
     301   3   1   1   0   1   3037  3039   638  3081  3713  4523  4524  4297
                               4491  4525
     302   3   1   1   0   1   3160  3037  3081  3079  4294  4297  4296  4301
                               3894  3898
     303   3   1   1   0   1   1722  3221  3102  1762  4526  4527  4528  1567
                               4529  4530
     304   3   1   1   0   1   3037  1287  3079  1162  3893  3895  3894  4304
                               4531  4305
     305   3   1   1   0   1   3037  1287   987  3038  3893  4532  4533  3711
                               4534  4535
     306   3   1   1   0   1   3036  3112  3113  1294  4536  4047  4537  4538
                               4539  4540
     307   3   1   1   0   1   3037   987   982  3038  4533   931  3717  3711
                               4535  3718
     308   3   1   1   0   1   1287  3035  3038  3037  3707  3715  4534  3893
                               3714  3711
     309   3   1   1   0   1   3019  3023  3024  3016  3671  3905  3675  3660
                               3669  3899
     310   3   1   1   0   1   3018  3152  3025  3019  4541  4542  3673  3676
                               4543  3677
     311   3   1   1   0   1   3019  3022  3222  3223  3667  4544  4545  4546
                               4547  4548
     312   3   1   1   0   1   3016  3027  3017  3022  3685  4549  3655  3666
                               4550  3682
     313   3   1   1   0   1   3019  3152  3025  3151  4543  4542  3677  4551
                               4218  4232
     314   3   1   1   0   1   2939  3080  3224  2929  4045  4552  4553  4050
                               4052  4554
     315   3   1   1   0   1   3201  1800  3225  3226  4448  4555  4556  4557
                               4558  4559
     316   3   1   1   0   1   2939  3003  3227  3228  3612  4560  4561  4562
                               4563  4564
     317   3   1   1   0   1   2939  3113  3003  3228  4048  4565  3612  4562
                               4566  4563
     318   3   1   1   0   1   3036  3113  3112  3080  4537  4047  4536  3889
                               4049  4046
     319   3   1   1   0   1   3035  3036  3081  3037  3705  3897  4567  3714
                               3892  4297
     320   3   1   1   0   1   2942  3000  3070  3004  3606  4568  4569  3614
                               4570  3836
     321   3   1   1   0   1   2939  2926  3070  2929  4571  3839  4572  4050
                               3437  4573
     322   3   1   1   0   1   3229  3082  3010  3230  4574  4575  4576  4577
                               4578  4579
     323   3   1   1   0   1   3229  3231  3232  3137  4580  4581  4582  4583
                               4584  4585
     324   3   1   1   0   1   3229  3232  3231  3215  4582  4581  4580  4586
                               4587  4588
     325   3   1   1   0   1   3229  3082  3215  3233  4574  4589  4586  4590
                               4591  4592
1

 ***** ANSYS - ENGINEERING ANALYSIS SYSTEM  RELEASE 15.0      *****
 ANSYS Academic Teaching Advanced                  
 00203145          VERSION=LINUX x64     08:23:48  AUG 20, 2014 CP=     14.632

                                                                               

 
    ELEM MAT TYP REL ESY SEC        NODES
 
     326   3   1   1   0   1   3234  1742  1743  1777  4593  1597  4594  4595
                               1532  1533
     327   3   1   1   0   1   2962  3137  3013  3010  4596  4597  4598  3640
                               4599  4600
     328   3   1   1   0   1   2995  3014  3235  3010  3652  4601  4602  3638
                               4603  4604
     329   3   1   1   0   1   3012  2997  3089  2996  3922  4605  4606  4607
                               3600  4608
     330   3   1   1   0   1   3012  3089  2943  3091  4606  3933  4157  4609
                               3941  4610
     331   3   1   1   0   1   3012  3236  3091  3092  4611  4612  4609  4158
                               4613  4614
     332   3   1   1   0   1   3012  3091  3236  3235  4609  4612  4611  4615
                               4616  4617
     333   3   1   1   0   1   3015  2994  2942  3013  3902  3900  3903  3916
                               3650  4618
     334   3   1   1   0   1   3237  3032  2030  2034  4619  4620  4621  4622
                               3695  1969
     335   3   1   1   0   1   2031  3028  2035  3034  4623  3701  1990  4624
                               3702  3704
     336   3   1   1   0   1   3028  3237  2031  2034  4625  4626  4623  3696
                               4622  1986
     337   3   1   1   0   1   3237  2930  3238  3034  4627  4628  4629  4630
                               4631  4632
     338   3   1   1   0   1   3237  2930  2031  3239  4627  4633  4626  4634
                               4635  4636
     339   3   1   1   0   1   3162  2949  3163  3051  4318  4321  4323  4637
                               4314  4638
     340   3   1   1   0   1   3163  3051  3052  3240  4638  3762  4639  4640
                               4641  4642
     341   3   1   1   0   1   3052  3053  1820  3050  3766  4643  4644  3763
                               3764  4645
     342   3   1   1   0   1   3051  3163  3053  2951  4638  4646  3765  4313
                               4647  4648
     343   3   1   1   0   1   3051  2949  3163  2951  4314  4321  4638  4313
                               3490  4647
     344   3   1   1   0   1   3051  3050  3241  2950  3761  4649  4650  4312
                               4651  4652
     345   3   1   1   0   1   3242  1286  3243  2938  4653  4654  4655  4656
                               4657  4658
     346   3   1   1   0   1   3242  1720  2938  1761  4659  3468  4656  4660
                               1570  3944
     347   3   1   1   0   1   3242  3221  1722  1762  4661  4526  4662  4663
                               4529  1567
     348   3   1   1   0   1   3242   832  1284  1721  4664  1246  4665  4666
                               1689  4667
     349   3   1   1   0   1   3242  2938  1720  1284  4656  3468  4659  4665
                               4668  4669
     350   3   1   1   0   1   3244  2988  3049  2298  4670  3758  4671  4672
                               4673  4674
1

 ***** ANSYS - ENGINEERING ANALYSIS SYSTEM  RELEASE 15.0      *****
 ANSYS Academic Teaching Advanced                  
 00203145          VERSION=LINUX x64     08:23:48  AUG 20, 2014 CP=     14.633

                                                                               

 
    ELEM MAT TYP REL ESY SEC        NODES
 
     351   3   1   1   0   1   3245  3045  2988  3049  4675  3759  4676  4677
                               3760  3758
     352   3   1   1   0   1   3167  3246  3247  3248  4678  4679  4680  4681
                               4682  4683
     353   3   1   1   0   1   3068  3249  3066  3245  4684  4685  4686  4687
                               4688  4689
     354   3   1   1   0   1   3067  3068  3250  3249  3830  4690  4691  4692
                               4684  4693
     355   3   1   1   0   1   3065  3249  3067  3152  4694  4692  3829  4695
                               4696  4697
     356   3   1   1   0   1   3073   975   985   992  3855   891  4698  3854
                                906   897
     357   3   1   1   0   1   3242  1721  1762  1722  4666  1568  4663  4662
                               1617  1567
     358   3   1   1   0   1   3065  3251  3066  3249  4699  4700  3824  4694
                               4701  4685
     359   3   1   1   0   1   3150  3025  3152  3144  4216  4542  4702  4212
                               4199  4219
     360   3   1   1   0   1   3252   984  3253   634  4703  4704  4705  4706
                                950  4707
     361   3   1   1   0   1   3252  3073  3254   991  4708  4709  4710  4711
                               4712  4713
     362   3   1   1   0   1   3252  3255  3254  3256  4714  4715  4710  4716
                               4717  4718
     363   3   1   1   0   1   3256  3252  3257  3073  4716  4719  4720  4721
                               4708  4722
     364   3   1   1   0   1   3258   689   670   687  4723  2911  4724  4725
                                688  2910
     365   3   1   1   0   1   3259  3260  3261  3262  4726  4727  4728  4729
                               4730  4731
     366   3   1   1   0   1   3259  3263  3238  3123  4732  4733  4734  4735
                               4736  4737
     367   3   1   1   0   1   3259  3044  3034  2930  4738  4739  4740  4741
                               4742  4631
     368   3   1   1   0   1   3264  2932  3265  3260  4743  4744  4745  4746
                               4747  4748
     369   3   1   1   0   1   3260  2932  3265  3044  4747  4744  4748  4749
                               3746  4750
     370   3   1   1   0   1   3259  3044  2930  2932  4738  4742  4741  4751
                               3746  3443
     371   3   1   1   0   1   3156  1733   807  1732  4262  1666  4752  4753
                               1607  1667
     372   3   1   1   0   1   3036  1287  2960  1294  3706  3710  3709  4538
                               1191  4754
     373   3   1   1   0   1   2941  2944  2952  2951  3518  3492  3512  3513
                               3489  3493
     374   3   1   1   0   1   2960  2953  2958  3191  4755  3503  4756  4757
                               4406  4758
     375   3   1   1   0   1   2960  3266  1274  1287  4759  4760  4761  3710
                               4762  1215
1

 ***** ANSYS - ENGINEERING ANALYSIS SYSTEM  RELEASE 15.0      *****
 ANSYS Academic Teaching Advanced                  
 00203145          VERSION=LINUX x64     08:23:48  AUG 20, 2014 CP=     14.634

                                                                               

 
    ELEM MAT TYP REL ESY SEC        NODES
 
     376   3   1   1   0   1   2960  2958  2952  1280  4756  3505  3511  4763
                               4764  4765
     377   3   1   1   0   1   3249  3267  3152  3268  4766  4767  4696  4768
                               4769  4770
     378   3   1   1   0   1   3065  3251  3249  3152  4699  4701  4694  4695
                               4771  4696
     379   3   1   1   0   1   3065  3150  3152  3067  4772  4702  4695  3829
                               4773  4697
     380   3   1   1   0   1   3148  3065  3150  3149  4774  4772  4775  4211
                               4776  4214
     381   3   1   1   0   1   2936   834   836  1720  4777   835  4778  3466
                               1691  1692
     382   3   1   1   0   1   3249  3268  3269  3267  4768  4779  4780  4766
                               4769  4781
     383   3   1   1   0   1   3249  3066  3233  3251  4685  4782  4783  4701
                               4700  4784
     384   3   1   1   0   1   3249  3250  3269  3245  4693  4785  4780  4688
                               4786  4787
     385   3   1   1   0   1   3140  2276  3083  3141  4788  4789  4179  4165
                               4790  4791
     386   3   1   1   0   1   3083  1829  2276   565  3918  3806  4789  4792
                               1322  4793
     387   3   1   1   0   1   3083  3141  3213  3143  4791  4794  4795  4796
                               4797  4798
     388   3   1   1   0   1   3063  2864  2757  1279  3812  2366  3810  3811
                               3813  3807
     389   3   1   1   0   1   3083  3250  3269  3141  4799  4785  4800  4791
                               4801  4802
     390   3   1   1   0   1   3270  3230  3082  3215  4803  4578  4804  4805
                               4806  4589
     391   3   1   1   0   1   3270  3082  3230  3017  4804  4578  4803  4807
                               3914  4808
     392   3   1   1   0   1   3270  3268  3082  3152  4809  4810  4804  4811
                               4770  4812
     393   3   1   1   0   1   2922  3268  2924  3270  4813  4814  3425  4815
                               4809  4816
     394   3   1   1   0   1   3271  3034  3031  3124  4817  4818  4819  4820
                               4821  4822
     395   3   1   1   0   1   3028  3237  3127  3034  4625  4823  4099  3702
                               4630  4824
     396   3   1   1   0   1   3032  3237  2030  3272  4619  4621  4620  4825
                               4826  4827
     397   3   1   1   0   1   3029  3109  3123  3095  4828  4829  4085  3955
                               4830  4831
     398   3   1   1   0   1   3237  3127  3238  3273  4823  4832  4629  4833
                               4834  4835
     399   3   1   1   0   1   3237  3273  3272  3032  4833  4836  4826  4619
                               4837  4825
     400   3   1   1   0   1   3032  3273  3272  3274  4837  4836  4825  4838
                               4839  4840
1

 ***** ANSYS - ENGINEERING ANALYSIS SYSTEM  RELEASE 15.0      *****
 ANSYS Academic Teaching Advanced                  
 00203145          VERSION=LINUX x64     08:23:48  AUG 20, 2014 CP=     14.635

                                                                               

 
    ELEM MAT TYP REL ESY SEC        NODES
 
     401   3   1   1   0   1   3029  3127  3126  3125  4098  4841  4092  4088
                               4842  4843
     402   3   1   1   0   1   3275  2794  2828  2827  4844  2508  4845  4846
                               2511  2456
     403   3   1   1   0   1   3029  3032  3126  3127  4091  4093  4092  4098
                               4100  4841
     404   3   1   1   0   1     16   805  2295  1827   804  2218  2157  1332
                               1330  4847
     405   3   1   1   0   1   2032  2034  3132  3129  1995  4848  4121  4117
                               4849  4120
     406   3   1   1   0   1   3025  3018  3024  3150  3673  3672  3674  4216
                               4850  4851
     407   3   1   1   0   1   3017  3016  3019  3018  3655  3660  3681  3659
                               3658  3676
     408   3   1   1   0   1   3025  2783  3150  2815  4852  4237  4216  4853
                               2566  4854
     409   3   1   1   0   1   3146  3025   618  2783  4198  4251  4250  4236
                               4852  2676
     410   3   1   1   0   1   3025  2784  3011   618  4855  4856  4202  4251
                               2675  4252
     411   3   1   1   0   1   3144  3147  3011  3151  4203  4857  4200  4217
                               4220  4233
     412   3   1   1   0   1    853  1713   851  1058  1705  1706   852  1044
                               4269  1043
     413   3   1   1   0   1   3151  3017  3019  3152  4858  3681  4551  4218
                               4859  4543
     414   3   1   1   0   1   3019  3222  3151  3025  4545  4860  4551  3677
                               4861  4232
     415   3   1   1   0   1    616  3222  2784  3011  4862  4863  2674  4864
                               4865  4856
     416   3   1   1   0   1   3222  2784  3011  3025  4863  4856  4865  4861
                               4855  4202
     417   3   1   1   0   1   3046  3055  3054  3075  3773  3768  4866  4867
                               4868  3865
     418   3   1   1   0   1   3046  3075  3200  3048  4867  4869  4870  3754
                               4871  4872
     419   3   1   1   0   1   3167  3248  3263  3273  4681  4873  4874  4875
                               4876  4877
     420   3   1   1   0   1   3276  3277  3272  3239  4878  4879  4880  4881
                               4882  4883
     421   3   1   1   0   1   3277  3272  3239  3273  4879  4883  4882  4884
                               4836  4885
     422   3   1   1   0   1   3273  3274  3127  3166  4839  4886  4834  4887
                               4888  4889
     423   3   1   1   0   1   3237  3034  3238  3127  4630  4632  4629  4823
                               4824  4832
     424   3   1   1   0   1   3273  3277  3248  3239  4884  4890  4876  4885
                               4882  4891
     425   3   1   1   0   1   3035  3039  3081  3042  3716  4491  4567  3723
                               3729  4892
1

 ***** ANSYS - ENGINEERING ANALYSIS SYSTEM  RELEASE 15.0      *****
 ANSYS Academic Teaching Advanced                  
 00203145          VERSION=LINUX x64     08:23:48  AUG 20, 2014 CP=     14.636

                                                                               

 
    ELEM MAT TYP REL ESY SEC        NODES
 
     426   3   1   1   0   1   3041  3042  2935  3039  3725  4893  4894  3728
                               3729  4895
     427   3   1   1   0   1   3036  3079  1287  1294  3888  3895  3706  4538
                               4896  1191
     428   3   1   1   0   1   3041  2929  2951  2935  4060  4311  4897  4894
                               3455  4898
     429   3   1   1   0   1   3112  3041  2929  2951  4058  4060  4051  4310
                               4897  4311
     430   3   1   1   0   1   1947  2276  1963   565  4899  4900  1869  4901
                               4793  4902
     431   3   1   1   0   1   3112  2951  2960  3041  4310  3510  4903  4058
                               4897  3727
     432   3   1   1   0   1   3274  3125  3127  3166  4904  4842  4886  4888
                               4905  4889
     433   3   1   1   0   1   3274  3127  3125  3126  4886  4842  4904  4906
                               4841  4843
     434   3   1   1   0   1   3032  3274  3126  3127  4838  4906  4093  4100
                               4886  4841
     435   3   1   1   0   1   3273  3278  3263  3238  4907  4908  4877  4835
                               4909  4733
     436   3   1   1   0   1   3274  3279  3280  3272  4910  4911  4912  4840
                               4913  4914
     437   3   1   1   0   1   3274  3279  3132  3126  4910  4915  4916  4906
                               4917  4918
     438   3   1   1   0   1   3121   517   740  1145  4919  2881  4920  4921
                               1119  4922
     439   3   1   1   0   1   2864  1279   869  2757  3813  1257  2368  2366
                               3807  2729
     440   3   1   1   0   1   2758  3115  3120  2867  4923  4073  4924  2354
                               4075  4074
     441   3   1   1   0   1   3120  2758  2781  2799  4924  2632  4925  4193
                               2605  2568
     442   3   1   1   0   1   3115  3114  3122  3121  4065  4926  4082  4078
                               4081  4084
     443   3   1   1   0   1   3281  2799  2821  3060  4927  2528  4928  4929
                               4195  4930
     444   3   1   1   0   1    742   517   740  3121  2880  2881   741  4931
                               4919  4920
     445   3   1   1   0   1   3120  3121  1145  1055  4080  4921  4932  4076
                               4079  4933
     446   3   1   1   0   1   3120  2867   738  2781  4074  2355  4934  4925
                               2347  2680
     447   3   1   1   0   1   3121  2780  3282  3281  4935  4936  4937  4938
                               4939  4940
     448   3   1   1   0   1    742  2780  3282  3121  2683  4936  4941  4931
                               4935  4937
     449   3   1   1   0   1    853  1712  1058   855  1708  4942  1044   854
                               1707  1045
     450   3   1   1   0   1   3144  3145  3267  3067  4186  4943  4944  4231
                               4229  4945
1

 ***** ANSYS - ENGINEERING ANALYSIS SYSTEM  RELEASE 15.0      *****
 ANSYS Academic Teaching Advanced                  
 00203145          VERSION=LINUX x64     08:23:48  AUG 20, 2014 CP=     14.636

                                                                               

 
    ELEM MAT TYP REL ESY SEC        NODES
 
     451   3   1   1   0   1   3145  2139  3147  2122  4190  4205  4204  4946
                               2042  4947
     452   3   1   1   0   1   3144  3147  2139  3011  4203  4205  4189  4200
                               4857  4948
     453   3   1   1   0   1   3163  3162  3240  2974  4323  4949  4640  4950
                               4951  4952
     454   3   1   1   0   1   3163  3283  3284  3192  4953  4954  4955  4956
                               4957  4958
     455   3   1   1   0   1   3163  2935  2951  2929  4959  4898  4647  4322
                               3455  4311
     456   3   1   1   0   1   3285  2855  3286  3287  4960  4961  4962  4963
                               4964  4965
     457   3   1   1   0   1   3285  3288  2969  2968  4966  4967  4968  4969
                               4970  3532
     458   3   1   1   0   1   3285  3101  3286  2969  4971  4972  4962  4968
                               3992  4973
     459   3   1   1   0   1   3285  3179  3289  3217  4974  4975  4976  4977
                               4518  4978
     460   3   1   1   0   1   3285  3216  2968  3217  4979  4508  4969  4977
                               4505  4509
     461   3   1   1   0   1   3285  2840  2965  2855  4980  4981  4982  4960
                               2411  4983
     462   3   1   1   0   1   3285  2969  3286  2965  4968  4973  4962  4982
                               4984  4985
     463   3   1   1   0   1   2963  2966  3285  3179  3524  4986  4987  4988
                               4989  4974
     464   3   1   1   0   1   3285  2965  2840  2966  4982  4981  4980  4986
                               3526  4990
     465   3   1   1   0   1   2990  2832  3290  2803  4991  4992  4993  4994
                               2497  4995
     466   3   1   1   0   1   2986  2993  3104  2989  3592  4001  4002  3584
                               4996  4997
     467   3   1   1   0   1   3065  2990  3134  3290  4130  4133  4132  4998
                               4993  4999
     468   3   1   1   0   1   3291  2970  3134  2832  5000  5001  5002  5003
                               5004  5005
     469   3   1   1   0   1   3292  1810  3293  1793  5006  5007  5008  5009
                               1402  5010
     470   3   1   1   0   1   3292  3293  1810  1792  5008  5007  5006  5011
                               5012  1391
     471   3   1   1   0   1   3294  3094  3295  3293  5013  5014  5015  5016
                               5017  5018
     472   3   1   1   0   1   3090  3094  3295  3294  3961  5014  5019  5020
                               5013  5015
     473   3   1   1   0   1   3292  3094  1792  1761  5021  5022  5011  5023
                               3959  1468
     474   3   1   1   0   1   3084  3090  1761  3242  5024  3960  5025  5026
                               5027  4660
     475   3   1   1   0   1   3056  3283  3219  3296  5028  5029  5030  5031
                               5032  5033
1

 ***** ANSYS - ENGINEERING ANALYSIS SYSTEM  RELEASE 15.0      *****
 ANSYS Academic Teaching Advanced                  
 00203145          VERSION=LINUX x64     08:23:48  AUG 20, 2014 CP=     14.637

                                                                               

 
    ELEM MAT TYP REL ESY SEC        NODES
 
     476   3   1   1   0   1   3056  2988  2967  3066  3857  3582  3860  3883
                               4003  3884
     477   3   1   1   0   1   3175  3176  2927  3177  4352  4361  4360  4354
                               4353  5034
     478   3   1   1   0   1   3176  3219  3177  3297  4513  5035  4353  5036
                               5037  5038
     479   3   1   1   0   1   3132  2034  2032  2030  4848  1995  4121  5039
                               1969  1997
     480   3   1   1   0   1   3283  3298  3177  3219  5040  5041  5042  5029
                               5043  5035
     481   3   1   1   0   1   3163  3283  2974  3240  4953  5044  4950  4640
                               5045  4952
     482   3   1   1   0   1   3163  3283  3192  2935  4953  4957  4956  4959
                               5046  5047
     483   3   1   1   0   1   3270  3082  3017  3152  4804  3914  4807  4811
                               4812  4859
     484   3   1   1   0   1   3017  3010  3299  3014  5048  5049  5050  3679
                               4603  5051
     485   3   1   1   0   1   3270  3230  3168  3017  4803  5052  5053  4807
                               4808  5054
     486   3   1   1   0   1   3230  3010  3299  3017  4579  5049  5055  4808
                               5048  5050
     487   3   1   1   0   1   3015  3018  3082  3013  3657  5056  3913  3916
                               5057  3917
     488   3   1   1   0   1   3082  3018  3152  3233  5056  4541  4812  4591
                               5058  5059
     489   3   1   1   0   1   3082  3013  3233  3010  3917  5060  4591  4575
                               4600  5061
     490   3   1   1   0   1   3171  3276  2129  3277  5062  5063  5064  5065
                               4878  5066
     491   3   1   1   0   1   1288  1279    94  2036  1217  1232  1216  5067
                               5068  1989
     492   3   1   1   0   1   3277  3239  3276  2129  4882  4881  4878  5066
                               5069  5063
     493   3   1   1   0   1   3300   557   555  1749  5070   556  5071  5072
                               1633  1634
     494   3   1   1   0   1   3276  3171  3172  3277  5062  4341  5073  4878
                               5065  5074
     495   3   1   1   0   1   1956  3276  3171  3172  5075  5062  5076  5077
                               5073  4341
     496   3   1   1   0   1   3277  3172  3272  3167  5074  5078  4879  5079
                               5080  5081
     497   3   1   1   0   1   3277  3167  3248  3171  5079  4681  4890  5065
                               4342  5082
     498   3   1   1   0   1   2142    39  1962  2294  2050  1876  5083  5084
                               2226  5085
     499   3   1   1   0   1   3145  3301  2297  2122  5086  5087  5088  4946
                               5089  5090
     500   3   1   1   0   1   3084  3133  3302  3294  5091  5092  5093  5094
                               5095  5096
1

 ***** ANSYS - ENGINEERING ANALYSIS SYSTEM  RELEASE 15.0      *****
 ANSYS Academic Teaching Advanced                  
 00203145          VERSION=LINUX x64     08:23:48  AUG 20, 2014 CP=     14.638

                                                                               

 
    ELEM MAT TYP REL ESY SEC        NODES
 
     501   3   1   1   0   1   3294  3303  3304  3305  5097  5098  5099  5100
                               5101  5102
     502   3   1   1   0   1   3292  3294  3090  3084  5103  5020  5104  5105
                               5094  5024
     503   3   1   1   0   1   3292  3293  3294  3084  5008  5016  5103  5105
                               5106  5094
     504   3   1   1   0   1   3294  3295  3305  3293  5015  5107  5100  5016
                               5018  5108
     505   3   1   1   0   1   3294  3303  3295  3090  5097  5109  5015  5020
                               5110  5019
     506   3   1   1   0   1   3303  3133  3084  3294  5111  5091  5112  5097
                               5095  5094
     507   3   1   1   0   1   3133  3279  3306  3304  5113  5114  5115  5116
                               5117  5118
     508   3   1   1   0   1   3133  3062  3307  3107  4127  5119  5120  4125
                               4128  5121
     509   3   1   1   0   1   3133  3304  3303  3131  5116  5098  5111  5122
                               5123  5124
     510   3   1   1   0   1   3133  3132  3279  3126  5125  4915  5113  5126
                               4918  4917
     511   3   1   1   0   1   3133  3279  3304  3126  5113  5117  5116  5126
                               4917  5127
     512   3   1   1   0   1   2942  3001  3000  3003  3608  3607  3606  3613
                               5128  5129
     513   3   1   1   0   1   2949  3162  3137  2950  4318  5130  5131  3487
                               5132  4151
     514   3   1   1   0   1   3203  2304  2299  2291  5133  2184  5134  5135
                               2180  2195
     515   3   1   1   0   1   2942  3070  3013  2949  4569  4316  4618  4307
                               4315  4317
     516   3   1   1   0   1   3069  3070  3071  3000  3835  3844  3843  5136
                               4568  5137
     517   3   1   1   0   1   1056  2920    12   681  5138  2898  1052  5139
                               2896   680
     518   3   1   1   0   1   2995  3235  3308  2996  4602  5140  5141  3596
                               5142  5143
     519   3   1   1   0   1   2995  2962  3013  3010  3637  4598  3649  3638
                               3640  4600
     520   3   1   1   0   1   2939  3070  2926  3004  4572  3839  4571  3615
                               3836  3840
     521   3   1   1   0   1   2939  3080  3227  3224  4045  5144  4561  4553
                               4552  5145
     522   3   1   1   0   1   3309  2922  3147  3310  5146  5147  5148  5149
                               5150  5151
     523   3   1   1   0   1   2142  3309  2122  3301  5152  5153  2046  5154
                               5155  5089
     524   3   1   1   0   1   2142  3309  1962   505  5152  5156  5083  2048
                               5157  1875
     525   3   1   1   0   1   2865    43   793  2027  2365   794  2364  5158
                               2022  2023
1

 ***** ANSYS - ENGINEERING ANALYSIS SYSTEM  RELEASE 15.0      *****
 ANSYS Academic Teaching Advanced                  
 00203145          VERSION=LINUX x64     08:23:48  AUG 20, 2014 CP=     14.639

                                                                               

 
    ELEM MAT TYP REL ESY SEC        NODES
 
     526   3   1   1   0   1   3309  2127  2923   503  5159  3423  5160  5161
                               2110  5162
     527   3   1   1   0   1   2922  2126  2127  3309  5163  2088  3424  5146
                               5164  5159
     528   3   1   1   0   1   2027  2125   510  2930  3733  2114  2010  3732
                               3442  5165
     529   3   1   1   0   1   3310  3267  3301  3309  5166  5167  5168  5149
                               5169  5155
     530   3   1   1   0   1    557  1951  3300   555  5170  5171  5070   556
                               5172  5071
     531   3   1   1   0   1   3300  3311  1749   555  5173  5174  5072  5071
                               5175  1634
     532   3   1   1   0   1    559   557   540  1950   558  1851  1852  5176
                               5177  1927
     533   3   1   1   0   1   3300  3312   559  1748  5178  5179  5180  5181
                               5182  1635
     534   3   1   1   0   1   3300  3313  1951  3170  5183  5184  5171  5185
                               5186  5187
     535   3   1   1   0   1   1749  3300  1748  3314  5072  5181  1591  5188
                               5189  5190
     536   3   1   1   0   1   3300  3312  1748  3314  5178  5182  5181  5189
                               5191  5190
     537   3   1   1   0   1   3067  3148  3065  3150  5192  4774  3829  4773
                               4775  4772
     538   3   1   1   0   1   3065  3149  3148  3315  4776  4211  4774  5193
                               5194  5195
     539   3   1   1   0   1   3068  2298  2991  2293  5196  5197  3833  5198
                               2206  5199
     540   3   1   1   0   1   3067  3145  3267  3301  4229  4943  4945  5200
                               5086  5167
     541   3   1   1   0   1   3067  2300  3301  3267  5201  5202  5200  4945
                               5203  5167
     542   3   1   1   0   1   3067  2292  3154  2297  5204  5205  4228  5206
                               2209  5207
     543   3   1   1   0   1   3067  3315  2292  2293  5208  5209  5204  5210
                               5211  2208
     544   3   1   1   0   1   3221  3303  3316  3131  5212  5213  5214  5215
                               5124  5216
     545   3   1   1   0   1   3294  3133  3304  3303  5095  5116  5099  5097
                               5111  5098
     546   3   1   1   0   1   3303  3317  3318  3319  5217  5218  5219  5220
                               5221  5222
     547   3   1   1   0   1   3303  3243  3319  3090  5223  5224  5220  5110
                               5225  5226
     548   3   1   1   0   1    802  1734   800  2026  1663  1664   801  2024
                               4036  2021
     549   3   1   1   0   1   3303  3317  3096  3131  5217  5227  5228  5124
                               5229  5230
     550   3   1   1   0   1   2967  2969  3288  2968  3531  4967  5231  3528
                               3532  4970
1

 ***** ANSYS - ENGINEERING ANALYSIS SYSTEM  RELEASE 15.0      *****
 ANSYS Academic Teaching Advanced                  
 00203145          VERSION=LINUX x64     08:23:48  AUG 20, 2014 CP=     14.639

                                                                               

 
    ELEM MAT TYP REL ESY SEC        NODES
 
     551   3   1   1   0   1   2962  2995  2949  2941  3637  5232  5233  3520
                               3624  4056
     552   3   1   1   0   1   3069  3004  2856  2973  3837  5234  5235  5236
                               5237  5238
     553   3   1   1   0   1   2942  2995  2949  3013  3622  5232  4307  4618
                               3649  4317
     554   3   1   1   0   1   3070  3162  3018  3013  4319  5239  3910  4316
                               4320  5057
     555   3   1   1   0   1   2963  2967  2971  2974  3527  3536  3535  3543
                               3881  3549
     556   3   1   1   0   1   2971  3251  3066  3134  5240  4700  5241  5242
                               5243  5244
     557   3   1   1   0   1   2971  3072  3024  3251  3846  5245  5246  5240
                               5247  5248
     558   3   1   1   0   1   2971  3066  2970  3134  5241  5249  3537  5242
                               5244  5001
     559   3   1   1   0   1   2967  2970  2971  3066  3533  3537  3536  3884
                               5249  5241
     560   3   1   1   0   1   3063  1279  3064  3031  3811  5250  3817  3821
                               5251  3822
     561   3   1   1   0   1   3031  3064  1278  1279  3822  5252  5253  5251
                               5250  1220
     562   3   1   1   0   1   2796  3197  2797  2755  4433  4430  2549  2611
                               5254  2608
     563   3   1   1   0   1   3197  2797  2755  3064  4430  2608  5254  5255
                               5256  5257
     564   3   1   1   0   1   3064  3197  3195  3109  5255  4438  5258  5259
                               5260  5261
     565   3   1   1   0   1   3109  3064  1278  3031  5259  5252  4030  5262
                               3822  5253
     566   3   1   1   0   1   3064   873  1279  2756  5263  1171  5250  3818
                               2730  3808
     567   3   1   1   0   1   3064  1278  3197  3109  5252  5264  5255  5259
                               4030  5260
     568   3   1   1   0   1   3064  2755  1278   873  5257  5265  5252  5263
                               2733  1259
     569   3   1   1   0   1   3301   654  2294  2297  5266  2225  5267  5087
                               2158  2192
     570   3   1   1   0   1   3286  3103  2969  3101  5268  3997  4973  4972
                               3998  3992
     571   3   1   1   0   1   3286  3103  2835  2834  5268  5269  5270  5271
                               5272  2450
     572   3   1   1   0   1   3287  2835  3212  2841  5273  5274  5275  5276
                               2418  5277
     573   3   1   1   0   1   2855  3287  2835  3286  4964  5273  2421  4961
                               4965  5270
     574   3   1   1   0   1   3285  3286  2855  2965  4962  4961  4960  4982
                               4985  4983
     575   3   1   1   0   1   3320   668   981   666  5278   958  5279  5280
                                667   959
1

 ***** ANSYS - ENGINEERING ANALYSIS SYSTEM  RELEASE 15.0      *****
 ANSYS Academic Teaching Advanced                  
 00203145          VERSION=LINUX x64     08:23:48  AUG 20, 2014 CP=     14.640

                                                                               

 
    ELEM MAT TYP REL ESY SEC        NODES
 
     576   3   1   1   0   1    980   991  3321  3320   922  5281  5282  5283
                               5284  5285
     577   3   1   1   0   1   3320  2982  3254  3322  5286  5287  5288  5289
                               5290  5291
     578   3   1   1   0   1   3320  3323  3324   687  5292  5293  5294  5295
                               5296  5297
     579   3   1   1   0   1    668   980   687  3320   961  5298  2909  5278
                               5283  5295
     580   3   1   1   0   1   2954  2304  3075  3325  5299  5300  5301  5302
                               5303  5304
     581   3   1   1   0   1   3220  3326  3086  3202  5305  5306  5307  5308
                               5309  5310
     582   3   1   1   0   1   3220  3327  3087  3086  5311  5312  5313  5307
                               5314  3927
     583   3   1   1   0   1   3077  3326  3296  3055  5315  5316  5317  3878
                               5318  5319
     584   3   1   1   0   1   3328  3077  3326  3296  5320  5315  5321  5322
                               5317  5316
     585   3   1   1   0   1   3054  3074  2954  3057  3864  5323  3874  3866
                               3863  3873
     586   3   1   1   0   1   3054  3329  3056  2967  5324  5325  3771  3859
                               5326  3860
     587   3   1   1   0   1   3055  3326  3296  3327  5318  5316  5319  5327
                               5328  5329
     588   3   1   1   0   1   3074  3076  3330  3220  3870  5330  5331  4521
                               4522  5332
     589   3   1   1   0   1   3055  3205  3220  3075  5333  5334  4520  4868
                               5335  5336
     590   3   1   1   0   1   3078  3224  3331  3080  5337  5338  5339  3890
                               4552  5340
     591   3   1   1   0   1   3036  3079  3113  3080  3888  5341  4537  3889
                               3891  4049
     592   3   1   1   0   1   3036  3112  3040  3080  4536  4059  3730  3889
                               4046  5342
     593   3   1   1   0   1   3078  3040  3042  2927  5343  3724  5344  5345
                               5346  4370
     594   3   1   1   0   1   3078  3331  3098  3080  5339  5347  4303  3890
                               5340  5348
     595   3   1   1   0   1   3078  3079  3080  3098  3887  3891  3890  4303
                               3966  5348
     596   3   1   1   0   1   3215  3214  3332  3269  4503  5349  5350  5351
                               5352  5353
     597   3   1   1   0   1   3083  3213  3142  3143  4795  5354  5355  4796
                               4798  4185
     598   3   1   1   0   1   3213  3214  3143  3333  4499  5356  4798  5357
                               5358  5359
     599   3   1   1   0   1   3213  3267  3269  3268  5360  4781  5361  5362
                               4769  4779
     600   3   1   1   0   1   3213  3143  2923  3333  4798  5363  5364  5357
                               5359  5365
1

[...]
    7570   2   1   1   0   1  10134 10169  9052  9029 10858 12186 12185 12678
                              12335  8645
    7571   2   1   1   0   1  10208 10047 10083 10079 11475 10369 11688 11686
                              10368 10370
    7572   2   1   1   0   1  10196 10112 10138  1158 11270 11984 11998 12035
                              11362 12079
    7573   2   1   1   0   1  10139   521 10141   523 11335 12382 11119 10655
                                522 10673
    7574   2   1   1   0   1  10138 10009  1160  9994 11995 12250 11446 10962
                               9938 12245
    7575   2   1   1   0   1  10107   638  1146   640 12081  1139 12114 12085
                                639  1138
1

 ***** ANSYS - ENGINEERING ANALYSIS SYSTEM  RELEASE 15.0      *****
 ANSYS Academic Teaching Advanced                  
 00203145          VERSION=LINUX x64     08:23:49  AUG 20, 2014 CP=     14.859

                                                                               

 
    ELEM MAT TYP REL ESY SEC        NODES
 
    7576   2   1   1   0   1  10155 10001 10002 10017 10767  9900 11012 10769
                               9889  9887
    7577   2   1   1   0   1  10126 10101 10116 10050 11727 10816 11505 11502
                              10818 10817
    7578   2   1   1   0   1  10119  9996 10003   118 10577  9899 10565 10576
                               9957  9959
    7579   2   1   1   0   1  10142  8405  8371  8406 11977  8150 11969 12566
                               8113  8149
    7580   2   1   1   0   1   8370   154  8369  9704  8270  8271  8220 10457
                               9678 10458
    7581   2   1   1   0   1  10187 10186 10078  9427 11107 11105 11108 11844
                              12265 11880
    7582   2   1   1   0   1  10127 10128 10175 10129 10618 11099 11117 10620
                              10619 11096
    7583   2   1   1   0   1  10104   589   587 10100 10508   588 11943 10491
                              10506 10814
    7584   2   1   1   0   1  10205  9049  9031  9050 11595  8640 12493 12360
                               8650  8553
    7585   2   1   1   0   1   9709    70  8988  9702  9666  8881 12603  9636
                               9664 11384
    7586   2   1   1   0   1  10134  9028  9029  9052 11732  8669 12678 12185
                               8646  8645
    7587   2   1   1   0   1  10168 10123 10122  9048 12365 10585 12292 12328
                              11591 11718
    7588   2   1   1   0   1  10096   975   991   981 11060   915 11063 11556
                                930   923
    7589   2   1   1   0   1   9993 10005   678    10  9949 12062 12056  9985
                               9954   679
    7590   2   1   1   0   1  10123  9021  9020  9048 11606  8730 11889 11591
                               8677  8676
    7591   2   1   1   0   1   8987  8988  9709    70  8836 12603 12353  8884
                               8881  9666
    7592   2   1   1   0   1  10052  8382  8341  8340 10262  8203 11693 12594
                               8202  8248
    7593   2   1   1   0   1  10093  8427  8426  8403 11690  8045 10475 12570
                               8067  8068
    7594   2   1   1   0   1    160  9699  8366  9703  9682 12104  8277  9681
                               9616 12105
    7595   2   1   1   0   1     89  9993   994    10  9986 11297   900    90
                               9985   901
    7596   2   1   1   0   1  10143  9722  9723 10099 11963  9570 10694 10685
                              12176 12018
    7597   2   1   1   0   1  10044   343   341  9722 11140   342 11966 11139
                               9576  9572
    7598   2   1   1   0   1  10058 10145 10180 10209 11523 11536 11781 11496
                              11522 11538
    7599   2   1   1   0   1  10055  8370  8405  8404 11978  8151 12302 10456
                               8152  8114
    7600   2   1   1   0   1  10023  9738 10022   417 12422 12423  9845  9850
                              12427  9851
1

 ***** ANSYS - ENGINEERING ANALYSIS SYSTEM  RELEASE 15.0      *****
 ANSYS Academic Teaching Advanced                  
 00203145          VERSION=LINUX x64     08:23:49  AUG 20, 2014 CP=     14.860

                                                                               

 
    ELEM MAT TYP REL ESY SEC        NODES
 
    7601   2   1   1   0   1  10053  8427  8441 10099 11465  8013 12438 11473
                              11974 12240
    7602   2   1   1   0   1    672   689   710   708  2912  7922 11050 12596
                               7923   709
    7603   2   1   1   0   1    670   687   706   668  2910  7921 10377   669
                               2909 12478
    7604   2   1   1   0   1  10149  8346 10097  8387 10737 10736 10725 10733
                               8190 10734
    7605   2   1   1   0   1  10149   582  8346   580 10751  8317 10737 10749
                                581  8318
    7606   2   1   1   0   1  10084 10042 10039 10040 11147 11146 10402 11825
                              10225 10217
    7607   2   1   1   0   1  10052  8381  8382  8340 10261  8136 10262 12594
                               8205  8202
    7608   2   1   1   0   1  10015 10019  9260   180  9876 11393 12597  9760
                               9877  9164
    7609   2   1   1   0   1  10151  8389  8390  8349 11230  8129 11872 12549
                               8187  8184
    7610   2   1   1   0   1    455 10047  9435 10016 12316 11263  9344  9871
                              12255 12313
    7611   2   1   1   0   1  10151  8349   576  8348 12549  8311 12295 11234
                               8239  8314
    7612   2   1   1   0   1  10156  9258 10104 10161 10794 10793 10792 10797
                              10799 11726
    7613   2   1   1   0   1  10113 10176  9425  9438 11093 12283 11329 11274
                              12160  9370
    7614   2   1   1   0   1    244  9735 10027   461  9521 12647 12646  9307
                              12581  9830
    7615   2   1   1   0   1    463   333   246  9735 12654  9519  9308 12582
                               9522  9520
    7616   2   1   1   0   1   9735   188   335 10027 12676  9140  9540 12647
                               9832 12681
    7617   2   1   1   0   1    244 10027   459   461 12646  9804  9324  9307
                               9830   460
    7618   2   1   1   0   1   9734   459 10021   242 12666  9840 12589  9533
                               9333 12588
    7619   2   1   1   0   1    337  9734   186 10021  9543 12680  9148 12431
                              12589  9854
    7620   2   1   1   0   1  10143 10099 10041  9722 10685 12109 11387 11963
                              12176 12175
    7621   2   1   1   0   1    186  9734   335 10027 12680  9544  9143  9833
                              12648 12681
    7622   2   1   1   0   1   9699   584  8452  8345 12671  7960 12587 10730
                               8319  7948
    7623   2   1   1   0   1    162  8452  9699    22  7961 12587  9691   163
                               7962  9692
    7624   2   1   1   0   1  10143  9729   238  9723 11965  9562 12006 10694
                               9567  9571
    7625   2   1   1   0   1   9741    31  7901   305  9486  7899 12536  9484
                                304  7897
1

 ***** ANSYS - ENGINEERING ANALYSIS SYSTEM  RELEASE 15.0      *****
 ANSYS Academic Teaching Advanced                  
 00203145          VERSION=LINUX x64     08:23:49  AUG 20, 2014 CP=     14.861

                                                                               

 
    ELEM MAT TYP REL ESY SEC        NODES
 
    7626   2   1   1   0   1   9250   176 10067   178  9207 11652 10400  9090
                                177 11654
    7627   2   1   1   0   1   9742   305  9741  7902  9481  9484  9459 12506
                               7893 12590
    7628   2   1   1   0   1   9741    31   412  9443  9486   413  9485 12418
                               9288  9287
    7629   2   1   1   0   1  10000  8365   209   207 12439  8280  9967  9966
                               8279   208
    7630   2   1   1   0   1   9266  9250 10000  8378  9107 11647 12407 12412
                              10395 11648
    7631   2   1   1   0   1  10102  9007  8966  8967 10486  8803 10822 10511
                               8802  8855
    7632   2   1   1   0   1    254   323   325 10030  9528   324  9488 12455
                              12663 12583
    7633   2   1   1   0   1  10192  1945  9246   627 11938 12634 12392 12632
                               1938  9235
    7634   2   1   1   0   1    254 10030 10031   471 12455  9785 12673  9317
                               9815  9814
    7635   2   1   1   0   1  10062  8376  8451  8352 10381  7963 12516 10307
                               8235  7947
    7636   2   1   1   0   1  10067  9995 10000  8364 10443  9941 11646 11650
                              11942 11651
    7637   2   1   1   0   1    200   321   202 10029  9111  9147   201  9790
                              12672  9792
    7638   2   1   1   0   1  10035 10028   204  9732  9769  9793  9770 12442
                              12657 12552
    7639   2   1   1   0   1   8483   584  9745  1859  8461 12416 12415 12414
                              12661 12660
    7640   2   1   1   0   1  10092  9998  9997 10019 12575  9902 12019 11392
                               9882  9747
    7641   2   1   1   0   1  10016 10200  9991 10144 11679 11307  9891 11678
                              11317 12641
    7642   2   1   1   0   1   8375   142  9706  8450  8259  9672 11915  7946
                               7968 12564
    7643   2   1   1   0   1   8355   263  8450  9429  8300  7969  7967 12474
                               9409 12475
    7644   2   1   1   0   1   8396  8397  8360 10092  8122  8168  8169 12577
                              12644 12574
    7645   2   1   1   0   1  10199  8394  8357  8358 12476  8174 12477 12052
                               8173  8231
    7646   2   1   1   0   1  10198  8409  8437  8431 12639  8024 11281 12325
                               8039  8008
    7647   2   1   1   0   1  10121 10122  9019 10125 10582 10581 10579 10596
                              10594 10602
    7648   2   1   1   0   1   8406  8429 10142  8405  8062 11478 12566  8113
                               8063 11977
    7649   2   1   1   0   1  10076  9709  8987  8988 11601 12353 11603 11867
                              12603  8836
    7650   2   1   1   0   1  10204  9033  9032  9000 11403  8666 11397 11404
                               8712  8713
1

 ***** ANSYS - ENGINEERING ANALYSIS SYSTEM  RELEASE 15.0      *****
 ANSYS Academic Teaching Advanced                  
 00203145          VERSION=LINUX x64     08:23:49  AUG 20, 2014 CP=     14.862

                                                                               

 
    ELEM MAT TYP REL ESY SEC        NODES
 
    7651   2   1   1   0   1  10068  9728   390  9730 10339  9569 10325 10341
                               9558  9565
    7652   2   1   1   0   1  10076  9702  9721  9709 11513  9609 12001 11601
                               9636  9607
    7653   2   1   1   0   1  10129 10075 10205 10076 11888 12263 11399 12329
                              10351 12330
    7654   2   1   1   0   1  10053  8446 10098  8441 11451 11454 11453 12438
                               7987 12347
    7655   2   1   1   0   1  10054  8413  8412  8430 12526  8057 10272 10275
                               8033  7940
    7656   2   1   1   0   1  10124  9728  9707  9708 11798  9463 12350 10592
                               9573  9611
    7657   2   1   1   0   1  10051  8429  8412  8433 10278  8034 10271 10266
                               8009  8036
    7658   2   1   1   0   1  10093  8368  8403  8402 12571  8155 12570 10474
                               8156  8116
    7659   2   1   1   0   1   8511   515   719  9445 12061 12090  8495 12066
                              12067 12281
    7660   2   1   1   0   1    515   719  9445  9425 12090 12281 12067 12268
                              11919  9279
    7661   2   1   1   0   1    647  1161  9434  9440  1079 12010  9393  9277
                              11714  9355
    7662   2   1   1   0   1  10093  8427  8441  8426 11690  8013 12241 10475
                               8045  8014
    7663   2   1   1   0   1  10140 10139 10170 10176 10667 12076 10864 10948
                              12078 12077
    7664   2   1   1   0   1  10013  9437   453   451 11255  9373  9916  9892
                               9364   452
    7665   2   1   1   0   1  10053  8448  8443  8446 12579  7983 11459 11451
                               7977  7976
    7666   2   1   1   0   1  10093  8402  8403  8426 10474  8116 12570 10475
                               8069  8068
    7667   2   1   1   0   1  10197  9998  9997 10092 12521  9902 11291 11299
                              12575 12019
    7668   2   1   1   0   1  10198  8338  8379  8380 12315  8210 12640 12314
                               8206  8138
    7669   2   1   1   0   1  10083 10052  8339 10198 11681 11698 12304 11683
                              11682 11699
    7670   2   1   1   0   1  10214   636   638   983 11823   637 12082 11822
                                952   953
    7671   2   1   1   0   1  10080 10088 10089 10096 10420 10908 10423 12560
                              10462 10921
    7672   2   1   1   0   1  10182  9432   700  9426 11559 12533 12047 12274
                               9397 12538
    7673   2   1   1   0   1  10192  1945  1946  1952 11938  1910 11210 11207
                               1904  1896
    7674   2   1   1   0   1  10048  8385  8414  8393 11907  8098 11170 11167
                               8126  8084
    7675   2   1   1   0   1   8975  8974   124 10002  8848  8910  8907 12374
                              11013  9961
1

 ***** ANSYS - ENGINEERING ANALYSIS SYSTEM  RELEASE 15.0      *****
 ANSYS Academic Teaching Advanced                  
 00203145          VERSION=LINUX x64     08:23:49  AUG 20, 2014 CP=     14.862

                                                                               

 
    ELEM MAT TYP REL ESY SEC        NODES
 
    7676   2   1   1   0   1  10198  8409  8380  8379 12639  8108 12314 12640
                               8107  8138
    7677   2   1   1   0   1  10199  8409  8379  8394 12607  8107 12251 12476
                               8083  8125
    7678   2   1   1   0   1  10013 10082 10010  9437 11252 11633  9918 11255
                              11254 12181
    7679   2   1   1   0   1  10044  9722 10143 10041 11139 11963 11389 10227
                              12175 11387
    7680   2   1   1   0   1  10099  9723  9705  9704 12018  9599 10683 11973
                               9600  9614
    7681   2   1   1   0   1  10195  8435  8436  8417 11236  8005 11278 11245
                               8030  8027
    7682   2   1   1   0   1  10038  9722  9711   345 11137  9587 11828 12243
                               9575  9605
    7683   2   1   1   0   1  10197  8422  8395  8396 12562  8080 12324 12578
                               8079  8123
    7684   2   1   1   0   1  10084 10043 10042 10040 11790 10223 11147 11825
                              10226 10225
    7685   2   1   1   0   1    578   559   557   540  8477   558  8474 12638
                               1852  1851
    7686   2   1   1   0   1   8361  9999  8398  8362 12612 10447  8166  8227
                              10448  8165
    7687   2   1   1   0   1  10152  8435  8417  8388 11237  8030 11244 12580
                               7941  8091
    7688   2   1   1   0   1  10098  8387  8434  8416 12108  7942 12537 12177
                               8093  8032
    7689   2   1   1   0   1  10152  8387  8416  8388 12172  8093 11238 12580
                               8131  8094
    7690   2   1   1   0   1  10062 10065  8377  8392 10315 10397 11131 11133
                              10389  8141
    7691   2   1   1   0   1  10097  8386  8415  8387 12569  8095 12568 10734
                               8132  8096
    7692   2   1   1   0   1  10197 10092  8396  9998 11299 12577 12578 12521
                              12575 12524
    7693   2   1   1   0   1  10143  9722  9729  9723 11963  9568 11965 10694
                               9570  9567
    7694   2   1   1   0   1  10149 10152 10041 10150 10720 12173 10732 10714
                              11381 11149
    7695   2   1   1   0   1    186   188 10027   335   187  9832  9833  9143
                               9140 12681
    7696   2   1   1   0   1  10192  1960  1951  1952 11195  1890 11192 11207
                               1891  1905
    7697   2   1   1   0   1   9437 10082 10010  9435 11254 11633 12181  9376
                              11260 12180
    7698   2   1   1   0   1  10000  9995   209  8364  9941  9978  9967 11651
                              11942  8281
    7699   2   1   1   0   1    244  9735   461   246  9521 12581  9307   245
                               9520  9309
    7700   2   1   1   0   1  10065  8364  8365  8401 11649  8224 12479 10388
                               8160  8159
1

 ***** ANSYS - ENGINEERING ANALYSIS SYSTEM  RELEASE 15.0      *****
 ANSYS Academic Teaching Advanced                  
 00203145          VERSION=LINUX x64     08:23:49  AUG 20, 2014 CP=     14.863

                                                                               

 
    ELEM MAT TYP REL ESY SEC        NODES
 
    7701   2   1   1   0   1   9995  8363   213   211 10891  8284  9980  9979
                               8283   212
    7702   2   1   1   0   1    652   654  9715  2122   653  9648  9649  2120
                               2121 11934
    7703   2   1   1   0   1  10072   357  9265  9724 11666  9157 11519 10617
                               9559 11518
    7704   2   1   1   0   1   9735  9734 10027   335  9539 12648 12647  9540
                               9544 12681
    7705   2   1   1   0   1    250   465   194   329  9313  9809 12527  9491
                              12674  9118
    7706   2   1   1   0   1  10091 10066  8391  8419 10434 11132 11759 11761
                              11762  8088
    7707   2   1   1   0   1    469   471   254 10031   470  9317  9316  9813
                               9814 12673
    7708   2   1   1   0   1    250   465   329   248  9313 12674  9491   249
                               9310  9494
    7709   2   1   1   0   1    465   248   192   329  9310 12656  9808 12674
                               9494  9119
    7710   2   1   1   0   1    331   192   248   329  9120 12656  9493   330
                               9119  9494
    7711   2   1   1   0   1  10132   978   977   674 10631   941 11584 11576
                                964   967
    7712   2   1   1   0   1    329   194   250   327  9118 12527  9491   328
                               9117  9492
    7713   2   1   1   0   1  10032   467   194   250  9811  9810  9781 12528
                               9312 12527
    7714   2   1   1   0   1   8360   219  9998  9999  8290  9971 12576 12610
                               9751  9926
    7715   2   1   1   0   1    647  1144  9434  1161  1142 12504  9393  1079
                               1073 12010
    7716   2   1   1   0   1   8992  9069  9249    59  8574 11875 11874  8874
                               8576  9238
    7717   2   1   1   0   1  10101 10103 10120  9040 10490 11746 11424 11499
                              12170 11507
    7718   2   1   1   0   1   8992  9251  8993    57 12664 12224  8831  8873
                               9230  8872
    7719   2   1   1   0   1   8361   215   217  9999  8287   216  8288 12612
                               9969  9970
