
 LIST ALL SELECTED NODES.   DSYS=      0
1

 ***** ANSYS - ENGINEERING ANALYSIS SYSTEM  RELEASE 15.0      *****
 ANSYS Academic Teaching Advanced                  
 00203145          VERSION=LINUX x64     08:23:48  AUG 20, 2014 CP=     14.253

                                                                               


   NODE        X                   Y                   Z
        1   0.700000000000E-01   0.862435565298E-01  -0.250000000000E-01
        2   0.700000000000E-01   0.962435565298E-01    0.00000000000    
        3   0.700000000000E-01    0.00000000000      -0.300000000000E-01
        4   0.400000000000E-01    0.00000000000      -0.300000000000E-01
        5   0.700000000000E-01   0.812435565298E-01  -0.250000000000E-01
        6   0.350000000000E-01   0.121243556530      -0.250000000000E-01
        7   0.300000000000E-01   0.121243556530      -0.250000000000E-01
        8    0.00000000000       0.121243556530      -0.300000000000E-01
        9   0.346944695195E-17   0.400000000000E-01  -0.300000000000E-01
       10   0.700000000000E-01   0.862435565298E-01   0.250000000000E-01
       11   0.350000000000E-01   0.121243556530       0.250000000000E-01
       12   0.300000000000E-01   0.121243556530       0.250000000000E-01
       13   0.700000000000E-01    0.00000000000      -0.250000000000E-01
       14   0.700000000000E-01    0.00000000000       0.250000000000E-01
       15   0.346944695195E-17   0.400000000000E-01  -0.250000000000E-01
       16    0.00000000000       0.121243556530       0.250000000000E-01
       17    0.00000000000       0.121243556530      -0.250000000000E-01
       18   0.700000000000E-01   0.812435565298E-01  -0.300000000000E-01
       19   0.700000000000E-01    0.00000000000       0.300000000000E-01
       20   0.400000000000E-01    0.00000000000       0.300000000000E-01
       21    0.00000000000       0.121243556530       0.300000000000E-01
       22   0.346944695195E-17   0.400000000000E-01   0.300000000000E-01
       23   0.300000000000E-01   0.121243556530      -0.300000000000E-01
       24   0.346944695195E-17   0.400000000000E-01   0.250000000000E-01
       25   0.700000000000E-01    0.00000000000        1.00000000000    
       26   0.700000000000E-01   0.812435565298E-01   0.300000000000E-01
       27   0.700000000000E-01   0.812435565298E-01   0.250000000000E-01
       28    0.00000000000       0.121243556530        1.00000000000    
       29   0.300000000000E-01   0.121243556530       0.300000000000E-01
       30   0.700000000000E-01    0.00000000000       -1.00000000000    
       31    0.00000000000       0.121243556530       -1.00000000000    
       32    0.00000000000        0.00000000000       -1.00000000000    
       33   0.700000000000E-01   0.121243556530       -1.00000000000    
       34    0.00000000000        0.00000000000        1.00000000000    
       35   0.700000000000E-01   0.121243556530        1.00000000000    
       36   0.350000000000E-01    0.00000000000      -0.250000000000E-01
       37   0.346944695195E-17   0.350000000000E-01  -0.250000000000E-01
       38   0.250000000000E-01    0.00000000000        0.00000000000    
       39   0.173472347598E-17   0.250000000000E-01    0.00000000000    
       40   0.350000000000E-01    0.00000000000       0.250000000000E-01
       41   0.346944695195E-17   0.350000000000E-01   0.250000000000E-01
       42   0.400000000000E-01    0.00000000000       0.250000000000E-01
       43   0.400000000000E-01    0.00000000000      -0.250000000000E-01
       44   0.450000000000E-01   0.121243556530        0.00000000000    
       45   0.700000000000E-01   0.871720332207E-01  -0.226788082728E-01
       46   0.700000000000E-01   0.881005099116E-01  -0.203576165456E-01
       47   0.700000000000E-01   0.892596080462E-01  -0.174598712090E-01
       48   0.700000000000E-01   0.904187061808E-01  -0.145621258724E-01
       49   0.700000000000E-01   0.918571087212E-01  -0.109661195215E-01
       50   0.700000000000E-01   0.932955112615E-01  -0.737011317067E-02
1

 ***** ANSYS - ENGINEERING ANALYSIS SYSTEM  RELEASE 15.0      *****
 ANSYS Academic Teaching Advanced                  
 00203145          VERSION=LINUX x64     08:23:48  AUG 20, 2014 CP=     14.255

                                                                               


   NODE        X                   Y                   Z
       51   0.700000000000E-01   0.947695338957E-01  -0.368505658533E-02
       52   0.667062026565E-01    0.00000000000      -0.300000000000E-01
       53   0.634124053129E-01    0.00000000000      -0.300000000000E-01
       54   0.603511872244E-01    0.00000000000      -0.300000000000E-01
       55   0.572899691358E-01    0.00000000000      -0.300000000000E-01
       56   0.541588734568E-01    0.00000000000      -0.300000000000E-01
       57   0.510277777778E-01    0.00000000000      -0.300000000000E-01
       58   0.480138888889E-01    0.00000000000      -0.300000000000E-01
       59   0.450000000000E-01    0.00000000000      -0.300000000000E-01
       60   0.425000000000E-01    0.00000000000      -0.300000000000E-01
       61    0.00000000000       0.117743556530      -0.300000000000E-01
       62    0.00000000000       0.114243556530      -0.300000000000E-01
       63    0.00000000000       0.110743556530      -0.300000000000E-01
       64    0.00000000000       0.107243556530      -0.300000000000E-01
       65    0.00000000000       0.103932667397      -0.300000000000E-01
       66    0.00000000000       0.100621778265      -0.300000000000E-01
       67    0.00000000000       0.973108891325E-01  -0.300000000000E-01
       68    0.00000000000       0.940000000000E-01  -0.300000000000E-01
       69    0.00000000000       0.905000000000E-01  -0.300000000000E-01
       70    0.00000000000       0.870000000000E-01  -0.300000000000E-01
       71    0.00000000000       0.835000000000E-01  -0.300000000000E-01
       72    0.00000000000       0.800000000000E-01  -0.300000000000E-01
       73    0.00000000000       0.765000000000E-01  -0.300000000000E-01
       74    0.00000000000       0.730000000000E-01  -0.300000000000E-01
       75    0.00000000000       0.695000000000E-01  -0.300000000000E-01
       76    0.00000000000       0.660000000000E-01  -0.300000000000E-01
       77    0.00000000000       0.625000000000E-01  -0.300000000000E-01
       78    0.00000000000       0.590000000000E-01  -0.300000000000E-01
       79    0.00000000000       0.555000000000E-01  -0.300000000000E-01
       80    0.00000000000       0.520000000000E-01  -0.300000000000E-01
       81    0.00000000000       0.485000000000E-01  -0.300000000000E-01
       82    0.00000000000       0.450000000000E-01  -0.300000000000E-01
       83    0.00000000000       0.425000000000E-01  -0.300000000000E-01
       84   0.700000000000E-01   0.947695338957E-01   0.368505658533E-02
       85   0.700000000000E-01   0.932955112616E-01   0.737011317067E-02
       86   0.700000000000E-01   0.918571087212E-01   0.109661195215E-01
       87   0.700000000000E-01   0.904187061809E-01   0.145621258724E-01
       88   0.700000000000E-01   0.892596080462E-01   0.174598712090E-01
       89   0.700000000000E-01   0.881005099116E-01   0.203576165456E-01
       90   0.700000000000E-01   0.871720332207E-01   0.226788082728E-01
       91   0.700000000000E-01    0.00000000000      -0.215000000000E-01
       92   0.700000000000E-01    0.00000000000      -0.180000000000E-01
       93   0.700000000000E-01    0.00000000000      -0.131700000000E-01
       94   0.700000000000E-01    0.00000000000      -0.834000000000E-02
       95   0.700000000000E-01    0.00000000000      -0.173472347598E-17
       96   0.700000000000E-01    0.00000000000       0.834000000000E-02
       97   0.700000000000E-01    0.00000000000       0.131700000000E-01
       98   0.700000000000E-01    0.00000000000       0.180000000000E-01
       99   0.700000000000E-01    0.00000000000       0.215000000000E-01
      100    0.00000000000       0.121243556530       0.215000000000E-01
1

 ***** ANSYS - ENGINEERING ANALYSIS SYSTEM  RELEASE 15.0      *****
 ANSYS Academic Teaching Advanced                  
 00203145          VERSION=LINUX x64     08:23:48  AUG 20, 2014 CP=     14.257

                                                                               


   NODE        X                   Y                   Z
      101    0.00000000000       0.121243556530       0.180000000000E-01
      102    0.00000000000       0.121243556530       0.131700000000E-01
      103    0.00000000000       0.121243556530       0.834000000000E-02
      104    0.00000000000       0.121243556530       0.693889390391E-17
      105    0.00000000000       0.121243556530      -0.834000000000E-02
      106    0.00000000000       0.121243556530      -0.131700000000E-01
      107    0.00000000000       0.121243556530      -0.180000000000E-01
      108    0.00000000000       0.121243556530      -0.215000000000E-01
      109   0.700000000000E-01   0.350000000000E-02  -0.300000000000E-01
      110   0.700000000000E-01   0.700000000000E-02  -0.300000000000E-01
      111   0.700000000000E-01   0.105000000000E-01  -0.300000000000E-01
      112   0.700000000000E-01   0.140000000000E-01  -0.300000000000E-01
      113   0.700000000000E-01   0.173108891325E-01  -0.300000000000E-01
      114   0.700000000000E-01   0.206217782649E-01  -0.300000000000E-01
      115   0.700000000000E-01   0.239326673974E-01  -0.300000000000E-01
      116   0.700000000000E-01   0.272435565298E-01  -0.300000000000E-01
      117   0.700000000000E-01   0.307435565298E-01  -0.300000000000E-01
      118   0.700000000000E-01   0.342435565298E-01  -0.300000000000E-01
      119   0.700000000000E-01   0.377435565298E-01  -0.300000000000E-01
      120   0.700000000000E-01   0.412435565298E-01  -0.300000000000E-01
      121   0.700000000000E-01   0.447435565298E-01  -0.300000000000E-01
      122   0.700000000000E-01   0.482435565298E-01  -0.300000000000E-01
      123   0.700000000000E-01   0.517435565298E-01  -0.300000000000E-01
      124   0.700000000000E-01   0.552435565298E-01  -0.300000000000E-01
      125   0.700000000000E-01   0.587435565298E-01  -0.300000000000E-01
      126   0.700000000000E-01   0.622435565298E-01  -0.300000000000E-01
      127   0.700000000000E-01   0.657435565298E-01  -0.300000000000E-01
      128   0.700000000000E-01   0.692435565298E-01  -0.300000000000E-01
      129   0.700000000000E-01   0.727435565298E-01  -0.300000000000E-01
      130   0.700000000000E-01   0.762435565298E-01  -0.300000000000E-01
      131   0.700000000000E-01   0.787435565298E-01  -0.300000000000E-01
      132   0.667062026565E-01    0.00000000000       0.300000000000E-01
      133   0.634124053129E-01    0.00000000000       0.300000000000E-01
      134   0.603511872244E-01    0.00000000000       0.300000000000E-01
      135   0.572899691358E-01    0.00000000000       0.300000000000E-01
      136   0.541588734568E-01    0.00000000000       0.300000000000E-01
      137   0.510277777778E-01    0.00000000000       0.300000000000E-01
      138   0.480138888889E-01    0.00000000000       0.300000000000E-01
      139   0.450000000000E-01    0.00000000000       0.300000000000E-01
      140   0.425000000000E-01    0.00000000000       0.300000000000E-01
      141    0.00000000000       0.117743556530       0.300000000000E-01
      142    0.00000000000       0.114243556530       0.300000000000E-01
      143    0.00000000000       0.110743556530       0.300000000000E-01
      144    0.00000000000       0.107243556530       0.300000000000E-01
      145    0.00000000000       0.103932667397       0.300000000000E-01
      146    0.00000000000       0.100621778265       0.300000000000E-01
      147    0.00000000000       0.973108891325E-01   0.300000000000E-01
      148    0.00000000000       0.940000000000E-01   0.300000000000E-01
      149    0.00000000000       0.905000000000E-01   0.300000000000E-01
      150    0.00000000000       0.870000000000E-01   0.300000000000E-01
1

 ***** ANSYS - ENGINEERING ANALYSIS SYSTEM  RELEASE 15.0      *****
 ANSYS Academic Teaching Advanced                  
 00203145          VERSION=LINUX x64     08:23:48  AUG 20, 2014 CP=     14.259

                                                                               


   NODE        X                   Y                   Z
      151    0.00000000000       0.835000000000E-01   0.300000000000E-01
      152    0.00000000000       0.800000000000E-01   0.300000000000E-01
      153    0.00000000000       0.765000000000E-01   0.300000000000E-01
      154    0.00000000000       0.730000000000E-01   0.300000000000E-01
      155    0.00000000000       0.695000000000E-01   0.300000000000E-01
      156    0.00000000000       0.660000000000E-01   0.300000000000E-01
      157    0.00000000000       0.625000000000E-01   0.300000000000E-01
      158    0.00000000000       0.590000000000E-01   0.300000000000E-01
      159    0.00000000000       0.555000000000E-01   0.300000000000E-01
      160    0.00000000000       0.520000000000E-01   0.300000000000E-01
      161    0.00000000000       0.485000000000E-01   0.300000000000E-01
      162    0.00000000000       0.450000000000E-01   0.300000000000E-01
      163    0.00000000000       0.425000000000E-01   0.300000000000E-01
      164   0.329379734354E-02   0.121243556530      -0.300000000000E-01
      165   0.658759468708E-02   0.121243556530      -0.300000000000E-01
      166   0.964881277564E-02   0.121243556530      -0.300000000000E-01
      167   0.127100308642E-01   0.121243556530      -0.300000000000E-01
      168   0.158411265432E-01   0.121243556530      -0.300000000000E-01
      169   0.189722222222E-01   0.121243556530      -0.300000000000E-01
      170   0.219861111111E-01   0.121243556530      -0.300000000000E-01
      171   0.250000000000E-01   0.121243556530      -0.300000000000E-01
      172   0.275000000000E-01   0.121243556530      -0.300000000000E-01
      173   0.700000000000E-01    0.00000000000       0.335000000000E-01
      174   0.700000000000E-01    0.00000000000       0.370000000000E-01
      175   0.700000000000E-01    0.00000000000       0.418359539405E-01
      176   0.700000000000E-01    0.00000000000       0.466719078811E-01
      177   0.700000000000E-01    0.00000000000       0.534422433978E-01
      178   0.700000000000E-01    0.00000000000       0.602125789146E-01
      179   0.700000000000E-01    0.00000000000       0.696910486381E-01
      180   0.700000000000E-01    0.00000000000       0.791695183615E-01
      181   0.700000000000E-01    0.00000000000       0.924036724393E-01
      182   0.700000000000E-01    0.00000000000       0.105637826517    
      183   0.700000000000E-01    0.00000000000       0.124135041570    
      184   0.700000000000E-01    0.00000000000       0.142632256623    
      185   0.700000000000E-01    0.00000000000       0.168528357698    
      186   0.700000000000E-01    0.00000000000       0.194424458772    
      187   0.700000000000E-01    0.00000000000       0.230679000276    
      188   0.700000000000E-01    0.00000000000       0.266933541781    
      189   0.700000000000E-01    0.00000000000       0.306976815637    
      190   0.700000000000E-01    0.00000000000       0.347020089494    
      191   0.700000000000E-01    0.00000000000       0.387235731853    
      192   0.700000000000E-01    0.00000000000       0.427451374211    
      193   0.700000000000E-01    0.00000000000       0.467667025522    
      194   0.700000000000E-01    0.00000000000       0.507882676832    
      195   0.700000000000E-01    0.00000000000       0.558078733174    
      196   0.700000000000E-01    0.00000000000       0.608274789515    
      197   0.700000000000E-01    0.00000000000       0.648490440826    
      198   0.700000000000E-01    0.00000000000       0.688706092136    
      199   0.700000000000E-01    0.00000000000       0.728921743447    
      200   0.700000000000E-01    0.00000000000       0.769137394757    
1

 ***** ANSYS - ENGINEERING ANALYSIS SYSTEM  RELEASE 15.0      *****
 ANSYS Academic Teaching Advanced                  
 00203145          VERSION=LINUX x64     08:23:48  AUG 20, 2014 CP=     14.260

                                                                               


   NODE        X                   Y                   Z
      201   0.700000000000E-01    0.00000000000       0.809353046068    
      202   0.700000000000E-01    0.00000000000       0.849568697379    
      203   0.700000000000E-01    0.00000000000       0.889784348689    
      204   0.700000000000E-01    0.00000000000       0.930000000000    
      205   0.700000000000E-01    0.00000000000       0.965000000000    
      206   0.700000000000E-01   0.350000000000E-02   0.300000000000E-01
      207   0.700000000000E-01   0.700000000000E-02   0.300000000000E-01
      208   0.700000000000E-01   0.105000000000E-01   0.300000000000E-01
      209   0.700000000000E-01   0.140000000000E-01   0.300000000000E-01
      210   0.700000000000E-01   0.173108891325E-01   0.300000000000E-01
      211   0.700000000000E-01   0.206217782649E-01   0.300000000000E-01
      212   0.700000000000E-01   0.239326673974E-01   0.300000000000E-01
      213   0.700000000000E-01   0.272435565298E-01   0.300000000000E-01
      214   0.700000000000E-01   0.307435565298E-01   0.300000000000E-01
      215   0.700000000000E-01   0.342435565298E-01   0.300000000000E-01
      216   0.700000000000E-01   0.377435565298E-01   0.300000000000E-01
      217   0.700000000000E-01   0.412435565298E-01   0.300000000000E-01
      218   0.700000000000E-01   0.447435565298E-01   0.300000000000E-01
      219   0.700000000000E-01   0.482435565298E-01   0.300000000000E-01
      220   0.700000000000E-01   0.517435565298E-01   0.300000000000E-01
      221   0.700000000000E-01   0.552435565298E-01   0.300000000000E-01
      222   0.700000000000E-01   0.587435565298E-01   0.300000000000E-01
      223   0.700000000000E-01   0.622435565298E-01   0.300000000000E-01
      224   0.700000000000E-01   0.657435565298E-01   0.300000000000E-01
      225   0.700000000000E-01   0.692435565298E-01   0.300000000000E-01
      226   0.700000000000E-01   0.727435565298E-01   0.300000000000E-01
      227   0.700000000000E-01   0.762435565298E-01   0.300000000000E-01
      228   0.700000000000E-01   0.787435565298E-01   0.300000000000E-01
      229    0.00000000000       0.121243556530       0.335000000000E-01
      230    0.00000000000       0.121243556530       0.370000000000E-01
      231    0.00000000000       0.121243556530       0.418359539405E-01
      232    0.00000000000       0.121243556530       0.466719078811E-01
      233    0.00000000000       0.121243556530       0.534422433978E-01
      234    0.00000000000       0.121243556530       0.602125789146E-01
      235    0.00000000000       0.121243556530       0.696910486381E-01
      236    0.00000000000       0.121243556530       0.791695183615E-01
      237    0.00000000000       0.121243556530       0.924036724393E-01
      238    0.00000000000       0.121243556530       0.105637826517    
      239    0.00000000000       0.121243556530       0.124135041570    
      240    0.00000000000       0.121243556530       0.142632256623    
      241    0.00000000000       0.121243556530       0.168528357698    
      242    0.00000000000       0.121243556530       0.194424458772    
      243    0.00000000000       0.121243556530       0.230679000276    
      244    0.00000000000       0.121243556530       0.266933541781    
      245    0.00000000000       0.121243556530       0.306976815637    
      246    0.00000000000       0.121243556530       0.347020089494    
      247    0.00000000000       0.121243556530       0.387235731853    
      248    0.00000000000       0.121243556530       0.427451374211    
      249    0.00000000000       0.121243556530       0.467667025522    
      250    0.00000000000       0.121243556530       0.507882676832    
1

 ***** ANSYS - ENGINEERING ANALYSIS SYSTEM  RELEASE 15.0      *****
 ANSYS Academic Teaching Advanced                  
 00203145          VERSION=LINUX x64     08:23:48  AUG 20, 2014 CP=     14.261

                                                                               


   NODE        X                   Y                   Z
      251    0.00000000000       0.121243556530       0.558078733174    
      252    0.00000000000       0.121243556530       0.608274789515    
      253    0.00000000000       0.121243556530       0.648490440826    
      254    0.00000000000       0.121243556530       0.688706092136    
      255    0.00000000000       0.121243556530       0.728921743447    
      256    0.00000000000       0.121243556530       0.769137394757    
      257    0.00000000000       0.121243556530       0.809353046068    
      258    0.00000000000       0.121243556530       0.849568697379    
      259    0.00000000000       0.121243556530       0.889784348689    
      260    0.00000000000       0.121243556530       0.930000000000    
      261    0.00000000000       0.121243556530       0.965000000000    
      262   0.329379734354E-02   0.121243556530       0.300000000000E-01
      263   0.658759468708E-02   0.121243556530       0.300000000000E-01
      264   0.964881277564E-02   0.121243556530       0.300000000000E-01
      265   0.127100308642E-01   0.121243556530       0.300000000000E-01
      266   0.158411265432E-01   0.121243556530       0.300000000000E-01
      267   0.189722222222E-01   0.121243556530       0.300000000000E-01
      268   0.219861111111E-01   0.121243556530       0.300000000000E-01
      269   0.250000000000E-01   0.121243556530       0.300000000000E-01
      270   0.275000000000E-01   0.121243556530       0.300000000000E-01
      271   0.700000000000E-01    0.00000000000      -0.335000000000E-01
      272   0.700000000000E-01    0.00000000000      -0.370000000000E-01
      273   0.700000000000E-01    0.00000000000      -0.418359539405E-01
      274   0.700000000000E-01    0.00000000000      -0.466719078811E-01
      275   0.700000000000E-01    0.00000000000      -0.534422433978E-01
      276   0.700000000000E-01    0.00000000000      -0.602125789146E-01
      277   0.700000000000E-01    0.00000000000      -0.696910486381E-01
      278   0.700000000000E-01    0.00000000000      -0.791695183615E-01
      279   0.700000000000E-01    0.00000000000      -0.924036724393E-01
      280   0.700000000000E-01    0.00000000000      -0.105637826517    
      281   0.700000000000E-01    0.00000000000      -0.124135041570    
      282   0.700000000000E-01    0.00000000000      -0.142632256623    
      283   0.700000000000E-01    0.00000000000      -0.168528357698    
      284   0.700000000000E-01    0.00000000000      -0.194424458772    
      285   0.700000000000E-01    0.00000000000      -0.230679000276    
      286   0.700000000000E-01    0.00000000000      -0.266933541781    
      287   0.700000000000E-01    0.00000000000      -0.306976815637    
      288   0.700000000000E-01    0.00000000000      -0.347020089494    
      289   0.700000000000E-01    0.00000000000      -0.387235731853    
      290   0.700000000000E-01    0.00000000000      -0.427451374211    
      291   0.700000000000E-01    0.00000000000      -0.467667025522    
      292   0.700000000000E-01    0.00000000000      -0.507882676832    
      293   0.700000000000E-01    0.00000000000      -0.558078733174    
      294   0.700000000000E-01    0.00000000000      -0.608274789515    
      295   0.700000000000E-01    0.00000000000      -0.648490440826    
      296   0.700000000000E-01    0.00000000000      -0.688706092136    
      297   0.700000000000E-01    0.00000000000      -0.728921743447    
      298   0.700000000000E-01    0.00000000000      -0.769137394757    
      299   0.700000000000E-01    0.00000000000      -0.809353046068    
      300   0.700000000000E-01    0.00000000000      -0.849568697379    
1

 ***** ANSYS - ENGINEERING ANALYSIS SYSTEM  RELEASE 15.0      *****
 ANSYS Academic Teaching Advanced                  
 00203145          VERSION=LINUX x64     08:23:48  AUG 20, 2014 CP=     14.263

                                                                               


   NODE        X                   Y                   Z
      301   0.700000000000E-01    0.00000000000      -0.889784348689    
      302   0.700000000000E-01    0.00000000000      -0.930000000000    
      303   0.700000000000E-01    0.00000000000      -0.965000000000    
      304    0.00000000000       0.909326673974E-01   -1.00000000000    
      305    0.00000000000       0.606217782649E-01   -1.00000000000    
      306    0.00000000000       0.303108891325E-01   -1.00000000000    
      307   0.700000000000E-01   0.303108891325E-01   -1.00000000000    
      308   0.700000000000E-01   0.606217782649E-01   -1.00000000000    
      309   0.700000000000E-01   0.909326673974E-01   -1.00000000000    
      310   0.700000000000E-01   0.303108891325E-01    1.00000000000    
      311   0.700000000000E-01   0.606217782649E-01    1.00000000000    
      312   0.700000000000E-01   0.909326673974E-01    1.00000000000    
      313    0.00000000000       0.909326673974E-01    1.00000000000    
      314    0.00000000000       0.606217782649E-01    1.00000000000    
      315    0.00000000000       0.303108891325E-01    1.00000000000    
      316    0.00000000000        0.00000000000       0.965000000000    
      317    0.00000000000        0.00000000000       0.930000000000    
      318    0.00000000000        0.00000000000       0.900744243066    
      319    0.00000000000        0.00000000000       0.871488486132    
      320    0.00000000000        0.00000000000       0.842232729198    
      321    0.00000000000        0.00000000000       0.812976972264    
      322    0.00000000000        0.00000000000       0.772761320954    
      323    0.00000000000        0.00000000000       0.732545669643    
      324    0.00000000000        0.00000000000       0.692330018333    
      325    0.00000000000        0.00000000000       0.652114367022    
      326    0.00000000000        0.00000000000       0.611898715711    
      327    0.00000000000        0.00000000000       0.571683064401    
      328    0.00000000000        0.00000000000       0.531467413090    
      329    0.00000000000        0.00000000000       0.491251761779    
      330    0.00000000000        0.00000000000       0.451037830304    
      331    0.00000000000        0.00000000000       0.410823898828    
      332    0.00000000000        0.00000000000       0.370731837684    
      333    0.00000000000        0.00000000000       0.330639776539    
      334    0.00000000000        0.00000000000       0.291922352606    
      335    0.00000000000        0.00000000000       0.253204928672    
      336    0.00000000000        0.00000000000       0.219602416167    
      337    0.00000000000        0.00000000000       0.185999903663    
      338    0.00000000000        0.00000000000       0.160626701273    
      339    0.00000000000        0.00000000000       0.135253498883    
      340    0.00000000000        0.00000000000       0.116881789971    
      341    0.00000000000        0.00000000000       0.985100810595E-01
      342    0.00000000000        0.00000000000       0.845968315807E-01
      343    0.00000000000        0.00000000000       0.706835821020E-01
      344    0.00000000000        0.00000000000       0.597177550449E-01
      345    0.00000000000        0.00000000000       0.487519279878E-01
      346    0.00000000000        0.00000000000       0.392083995203E-01
      347    0.00000000000        0.00000000000       0.296648710527E-01
      348    0.00000000000        0.00000000000       0.209291384369E-01
      349    0.00000000000        0.00000000000       0.121934058210E-01
      350    0.00000000000        0.00000000000       0.395335246264E-02
1

 ***** ANSYS - ENGINEERING ANALYSIS SYSTEM  RELEASE 15.0      *****
 ANSYS Academic Teaching Advanced                  
 00203145          VERSION=LINUX x64     08:23:48  AUG 20, 2014 CP=     14.265

                                                                               


   NODE        X                   Y                   Z
      351    0.00000000000        0.00000000000      -0.428670089577E-02
      352    0.00000000000        0.00000000000      -0.137393338813E-01
      353    0.00000000000        0.00000000000      -0.231919668669E-01
      354    0.00000000000        0.00000000000      -0.336713087422E-01
      355    0.00000000000        0.00000000000      -0.441506506175E-01
      356    0.00000000000        0.00000000000      -0.583224227038E-01
      357    0.00000000000        0.00000000000      -0.724941947901E-01
      358    0.00000000000        0.00000000000      -0.990905842887E-01
      359    0.00000000000        0.00000000000      -0.125686973787    
      360    0.00000000000        0.00000000000      -0.165902625098    
      361    0.00000000000        0.00000000000      -0.206118276409    
      362    0.00000000000        0.00000000000      -0.246333927719    
      363    0.00000000000        0.00000000000      -0.286549579030    
      364    0.00000000000        0.00000000000      -0.326765230341    
      365    0.00000000000        0.00000000000      -0.366980881651    
      366    0.00000000000        0.00000000000      -0.407196532962    
      367    0.00000000000        0.00000000000      -0.447412184272    
      368    0.00000000000        0.00000000000      -0.487627835583    
      369    0.00000000000        0.00000000000      -0.527843486894    
      370    0.00000000000        0.00000000000      -0.568059138204    
      371    0.00000000000        0.00000000000      -0.608274789515    
      372    0.00000000000        0.00000000000      -0.648490440826    
      373    0.00000000000        0.00000000000      -0.688706092136    
      374    0.00000000000        0.00000000000      -0.728921743447    
      375    0.00000000000        0.00000000000      -0.769137394757    
      376    0.00000000000        0.00000000000      -0.809353046068    
      377    0.00000000000        0.00000000000      -0.849568697379    
      378    0.00000000000        0.00000000000      -0.889784348689    
      379    0.00000000000        0.00000000000      -0.930000000000    
      380    0.00000000000        0.00000000000      -0.965000000000    
      381    0.00000000000       0.121243556530      -0.335000000000E-01
      382    0.00000000000       0.121243556530      -0.370000000000E-01
      383    0.00000000000       0.121243556530      -0.418359539405E-01
      384    0.00000000000       0.121243556530      -0.466719078811E-01
      385    0.00000000000       0.121243556530      -0.534422433978E-01
      386    0.00000000000       0.121243556530      -0.602125789146E-01
      387    0.00000000000       0.121243556530      -0.696910486381E-01
      388    0.00000000000       0.121243556530      -0.791695183615E-01
      389    0.00000000000       0.121243556530      -0.924036724393E-01
      390    0.00000000000       0.121243556530      -0.105637826517    
      391    0.00000000000       0.121243556530      -0.124135041570    
      392    0.00000000000       0.121243556530      -0.142632256623    
      393    0.00000000000       0.121243556530      -0.168528357698    
      394    0.00000000000       0.121243556530      -0.194424458772    
      395    0.00000000000       0.121243556530      -0.230679000276    
      396    0.00000000000       0.121243556530      -0.266933541781    
      397    0.00000000000       0.121243556530      -0.306978866011    
      398    0.00000000000       0.121243556530      -0.347024190241    
      399    0.00000000000       0.121243556530      -0.387239832706    
      400    0.00000000000       0.121243556530      -0.427455475171    
1

 ***** ANSYS - ENGINEERING ANALYSIS SYSTEM  RELEASE 15.0      *****
 ANSYS Academic Teaching Advanced                  
 00203145          VERSION=LINUX x64     08:23:48  AUG 20, 2014 CP=     14.266

                                                                               


   NODE        X                   Y                   Z
      401    0.00000000000       0.121243556530      -0.467671126482    
      402    0.00000000000       0.121243556530      -0.507886777793    
      403    0.00000000000       0.121243556530      -0.558080783654    
      404    0.00000000000       0.121243556530      -0.608274789515    
      405    0.00000000000       0.121243556530      -0.648490440826    
      406    0.00000000000       0.121243556530      -0.688706092136    
      407    0.00000000000       0.121243556530      -0.728921743447    
      408    0.00000000000       0.121243556530      -0.769137394757    
      409    0.00000000000       0.121243556530      -0.809353046068    
      410    0.00000000000       0.121243556530      -0.849568697379    
      411    0.00000000000       0.121243556530      -0.889784348689    
      412    0.00000000000       0.121243556530      -0.930000000000    
      413    0.00000000000       0.121243556530      -0.965000000000    
      414   0.700000000000E-01   0.121243556530      -0.965000000000    
      415   0.700000000000E-01   0.121243556530      -0.930000000000    
      416   0.700000000000E-01   0.121243556530      -0.900896433450    
      417   0.700000000000E-01   0.121243556530      -0.871792866900    
      418   0.700000000000E-01   0.121243556530      -0.842689300350    
      419   0.700000000000E-01   0.121243556530      -0.813585733800    
      420   0.700000000000E-01   0.121243556530      -0.773370082489    
      421   0.700000000000E-01   0.121243556530      -0.733154431178    
      422   0.700000000000E-01   0.121243556530      -0.692938779868    
      423   0.700000000000E-01   0.121243556530      -0.652723128557    
      424   0.700000000000E-01   0.121243556530      -0.612507477246    
      425   0.700000000000E-01   0.121243556530      -0.572291825936    
      426   0.700000000000E-01   0.121243556530      -0.532076174625    
      427   0.700000000000E-01   0.121243556530      -0.491860523314    
      428   0.700000000000E-01   0.121243556530      -0.451646757534    
      429   0.700000000000E-01   0.121243556530      -0.411432991753    
      430   0.700000000000E-01   0.121243556530      -0.371348692853    
      431   0.700000000000E-01   0.121243556530      -0.331264393953    
      432   0.700000000000E-01   0.121243556530      -0.292596970877    
      433   0.700000000000E-01   0.121243556530      -0.253929547801    
      434   0.700000000000E-01   0.121243556530      -0.220324621178    
      435   0.700000000000E-01   0.121243556530      -0.186719694555    
      436   0.700000000000E-01   0.121243556530      -0.161284028735    
      437   0.700000000000E-01   0.121243556530      -0.135848362916    
      438   0.700000000000E-01   0.121243556530      -0.117400131857    
      439   0.700000000000E-01   0.121243556530      -0.989519007974E-01
      440   0.700000000000E-01   0.121243556530      -0.849894254403E-01
      441   0.700000000000E-01   0.121243556530      -0.710269500831E-01
      442   0.700000000000E-01   0.121243556530      -0.600292259546E-01
      443   0.700000000000E-01   0.121243556530      -0.490315018260E-01
      444   0.700000000000E-01   0.121243556530      -0.394780209007E-01
      445   0.700000000000E-01   0.121243556530      -0.299245399754E-01
      446   0.700000000000E-01   0.121243556530      -0.211690160093E-01
      447   0.700000000000E-01   0.121243556530      -0.124134920431E-01
      448   0.700000000000E-01   0.121243556530      -0.418118266438E-02
      449   0.700000000000E-01   0.121243556530       0.405112671432E-02
      450   0.700000000000E-01   0.121243556530       0.134997868365E-01
1

 ***** ANSYS - ENGINEERING ANALYSIS SYSTEM  RELEASE 15.0      *****
 ANSYS Academic Teaching Advanced                  
 00203145          VERSION=LINUX x64     08:23:48  AUG 20, 2014 CP=     14.268

                                                                               


   NODE        X                   Y                   Z
      451   0.700000000000E-01   0.121243556530       0.229484469587E-01
      452   0.700000000000E-01   0.121243556530       0.333990723565E-01
      453   0.700000000000E-01   0.121243556530       0.438496977544E-01
      454   0.700000000000E-01   0.121243556530       0.579598359539E-01
      455   0.700000000000E-01   0.121243556530       0.720699741533E-01
      456   0.700000000000E-01   0.121243556530       0.988784739704E-01
      457   0.700000000000E-01   0.121243556530       0.125686973787    
      458   0.700000000000E-01   0.121243556530       0.165902625098    
      459   0.700000000000E-01   0.121243556530       0.206118276409    
      460   0.700000000000E-01   0.121243556530       0.246333927719    
      461   0.700000000000E-01   0.121243556530       0.286549579030    
      462   0.700000000000E-01   0.121243556530       0.326765230341    
      463   0.700000000000E-01   0.121243556530       0.366980881651    
      464   0.700000000000E-01   0.121243556530       0.407196532962    
      465   0.700000000000E-01   0.121243556530       0.447412184272    
      466   0.700000000000E-01   0.121243556530       0.487627835583    
      467   0.700000000000E-01   0.121243556530       0.527843486894    
      468   0.700000000000E-01   0.121243556530       0.568059138204    
      469   0.700000000000E-01   0.121243556530       0.608274789515    
      470   0.700000000000E-01   0.121243556530       0.648490440826    
      471   0.700000000000E-01   0.121243556530       0.688706092136    
      472   0.700000000000E-01   0.121243556530       0.728921743447    
      473   0.700000000000E-01   0.121243556530       0.769137394757    
      474   0.700000000000E-01   0.121243556530       0.809353046068    
      475   0.700000000000E-01   0.121243556530       0.849568697379    
      476   0.700000000000E-01   0.121243556530       0.889784348689    
      477   0.700000000000E-01   0.121243556530       0.930000000000    
      478   0.700000000000E-01   0.121243556530       0.965000000000    
      479   0.349107522409E-01   0.249787469190E-02  -0.250000000000E-01
      480   0.346434641156E-01   0.498301054284E-02  -0.250000000000E-01
      481   0.339843662746E-01   0.837035536378E-02  -0.250000000000E-01
      482   0.329948983687E-01   0.116763299731E-01  -0.250000000000E-01
      483   0.317199704072E-01   0.147933592320E-01  -0.250000000000E-01
      484   0.301513721571E-01   0.177734283986E-01  -0.250000000000E-01
      485   0.283233902564E-01   0.205617500321E-01  -0.250000000000E-01
      486   0.262383879155E-01   0.231634841851E-01  -0.250000000000E-01
      487   0.239185751646E-01   0.255519424329E-01  -0.250000000000E-01
      488   0.213822990340E-01   0.277091553105E-01  -0.250000000000E-01
      489   0.186349759197E-01   0.296266378868E-01  -0.250000000000E-01
      490   0.157169028167E-01   0.312726552414E-01  -0.250000000000E-01
      491   0.131785876065E-01   0.324241395984E-01  -0.250000000000E-01
      492   0.105566936805E-01   0.333699897893E-01  -0.250000000000E-01
      493   0.779589865645E-02   0.341207263132E-01  -0.250000000000E-01
      494   0.498301052244E-02   0.346434641186E-01  -0.250000000000E-01
      495   0.249787467812E-02   0.349107522419E-01  -0.250000000000E-01
      496   0.247412846706E-01   0.358731554914E-02    0.00000000000    
      497   0.239704933721E-01   0.710038361620E-02    0.00000000000    
      498   0.228651789958E-01   0.101085898863E-01    0.00000000000    
      499   0.213841065054E-01   0.129506752320E-01    0.00000000000    
      500   0.195516153124E-01   0.155799338469E-01    0.00000000000    
1

 ***** ANSYS - ENGINEERING ANALYSIS SYSTEM  RELEASE 15.0      *****
 ANSYS Academic Teaching Advanced                  
 00203145          VERSION=LINUX x64     08:23:48  AUG 20, 2014 CP=     14.269

                                                                               


   NODE        X                   Y                   Z
      501   0.173978199165E-01   0.179531574424E-01    0.00000000000    
      502   0.149581150143E-01   0.200313453172E-01    0.00000000000    
      503   0.122725938365E-01   0.217803452802E-01    0.00000000000    
      504   0.938538927002E-02   0.231714148953E-01    0.00000000000    
      505   0.634394859916E-02   0.241816938235E-01    0.00000000000    
      506   0.319825376798E-02   0.247945795051E-01    0.00000000000    
      507   0.340715233091E-01    0.00000000000      -0.226788082728E-01
      508   0.331430466182E-01    0.00000000000      -0.203576165456E-01
      509   0.319918626692E-01    0.00000000000      -0.174796566729E-01
      510   0.308406787201E-01    0.00000000000      -0.146016968003E-01
      511   0.294400918731E-01    0.00000000000      -0.111002296827E-01
      512   0.280395050261E-01    0.00000000000      -0.759876256518E-02
      513   0.265197525130E-01    0.00000000000      -0.379938128259E-02
      514   0.350892477591E-01   0.118745681838      -0.250000000000E-01
      515   0.353565358844E-01   0.116260545987      -0.250000000000E-01
      516   0.360156337254E-01   0.112873201166      -0.250000000000E-01
      517   0.370051016313E-01   0.109567226557      -0.250000000000E-01
      518   0.382800295928E-01   0.106450197298      -0.250000000000E-01
      519   0.398486278429E-01   0.103470128131      -0.250000000000E-01
      520   0.416915012667E-01   0.100661309338      -0.250000000000E-01
      521   0.437951744300E-01   0.980421100911E-01  -0.250000000000E-01
      522   0.461282238728E-01   0.956478868857E-01  -0.250000000000E-01
      523   0.486790506479E-01   0.934871677386E-01  -0.250000000000E-01
      524   0.514067545794E-01   0.915907113926E-01  -0.250000000000E-01
      525   0.543019785791E-01   0.899614190794E-01  -0.250000000000E-01
      526   0.568298143405E-01   0.888160032812E-01  -0.250000000000E-01
      527   0.594404548883E-01   0.878744689331E-01  -0.250000000000E-01
      528   0.622026435406E-01   0.871231633280E-01  -0.250000000000E-01
      529   0.650169894776E-01   0.866000924113E-01  -0.250000000000E-01
      530   0.675021253219E-01   0.863328042880E-01  -0.250000000000E-01
      531   0.349107522409E-01   0.249787469190E-02   0.250000000000E-01
      532   0.346434641156E-01   0.498301054284E-02   0.250000000000E-01
      533   0.339843662746E-01   0.837035536378E-02   0.250000000000E-01
      534   0.329948983687E-01   0.116763299731E-01   0.250000000000E-01
      535   0.317199704072E-01   0.147933592320E-01   0.250000000000E-01
      536   0.301513721571E-01   0.177734283986E-01   0.250000000000E-01
      537   0.283233902564E-01   0.205617500321E-01   0.250000000000E-01
      538   0.262383879155E-01   0.231634841851E-01   0.250000000000E-01
      539   0.239185751646E-01   0.255519424329E-01   0.250000000000E-01
      540   0.213822990340E-01   0.277091553105E-01   0.250000000000E-01
      541   0.186349759197E-01   0.296266378868E-01   0.250000000000E-01
      542   0.157169028167E-01   0.312726552414E-01   0.250000000000E-01
      543   0.131785876065E-01   0.324241395984E-01   0.250000000000E-01
      544   0.105566936805E-01   0.333699897893E-01   0.250000000000E-01
      545   0.779589865645E-02   0.341207263132E-01   0.250000000000E-01
      546   0.498301052244E-02   0.346434641186E-01   0.250000000000E-01
      547   0.249787467812E-02   0.349107522419E-01   0.250000000000E-01
      548   0.399219004280E-01   0.249837271370E-02   0.250000000000E-01
      549   0.396879066892E-01   0.498698933546E-02   0.250000000000E-01
      550   0.391021881568E-01   0.842727010076E-02   0.250000000000E-01
1

 ***** ANSYS - ENGINEERING ANALYSIS SYSTEM  RELEASE 15.0      *****
 ANSYS Academic Teaching Advanced                  
 00203145          VERSION=LINUX x64     08:23:48  AUG 20, 2014 CP=     14.272

                                                                               


   NODE        X                   Y                   Z
      551   0.382188384828E-01   0.118034056538E-01   0.250000000000E-01
      552   0.370411536538E-01   0.150981103452E-01   0.250000000000E-01
      553   0.355800572220E-01   0.182772954257E-01   0.250000000000E-01
      554   0.342574294382E-01   0.206501459628E-01   0.250000000000E-01
      555   0.327767943156E-01   0.229277507486E-01   0.250000000000E-01
      556   0.311449810652E-01   0.250996046672E-01   0.250000000000E-01
      557   0.293695161846E-01   0.271556903628E-01   0.250000000000E-01
      558   0.268840656831E-01   0.296183560034E-01   0.250000000000E-01
      559   0.241929153434E-01   0.318544007507E-01   0.250000000000E-01
      560   0.213166561422E-01   0.338467158069E-01   0.250000000000E-01
      561   0.182772953874E-01   0.355800572417E-01   0.250000000000E-01
      562   0.150981103026E-01   0.370411536712E-01   0.250000000000E-01
      563   0.118034056042E-01   0.382188384981E-01   0.250000000000E-01
      564   0.842727005968E-02   0.391021881656E-01   0.250000000000E-01
      565   0.498698931340E-02   0.396879066919E-01   0.250000000000E-01
      566   0.249837270353E-02   0.399219004286E-01   0.250000000000E-01
      567   0.399219004280E-01   0.249837271370E-02   0.300000000000E-01
      568   0.396879066892E-01   0.498698933546E-02   0.300000000000E-01
      569   0.391007487855E-01   0.843394595744E-02   0.300000000000E-01
      570   0.382148058258E-01   0.118164552931E-01   0.300000000000E-01
      571   0.370359876526E-01   0.151107782260E-01   0.300000000000E-01
      572   0.355737938078E-01   0.182894831561E-01   0.300000000000E-01
      573   0.342538918340E-01   0.206560135125E-01   0.300000000000E-01
      574   0.327767943156E-01   0.229277507486E-01   0.300000000000E-01
      575   0.311492798444E-01   0.250942695684E-01   0.300000000000E-01
      576   0.293788172949E-01   0.271456275365E-01   0.300000000000E-01
      577   0.268942105845E-01   0.296091444834E-01   0.300000000000E-01
      578   0.242038264135E-01   0.318461110176E-01   0.300000000000E-01
      579   0.213282498965E-01   0.338394112885E-01   0.300000000000E-01
      580   0.182894831177E-01   0.355737938276E-01   0.300000000000E-01
      581   0.151107781833E-01   0.370359876700E-01   0.300000000000E-01
      582   0.118164552433E-01   0.382148058412E-01   0.300000000000E-01
      583   0.843394591627E-02   0.391007487944E-01   0.300000000000E-01
      584   0.498698931340E-02   0.396879066919E-01   0.300000000000E-01
      585   0.249837270353E-02   0.399219004286E-01   0.300000000000E-01
      586   0.399219004280E-01   0.249837271370E-02  -0.300000000000E-01
      587   0.396879066892E-01   0.498698933546E-02  -0.300000000000E-01
      588   0.391007487855E-01   0.843394595744E-02  -0.300000000000E-01
      589   0.382148058258E-01   0.118164552931E-01  -0.300000000000E-01
      590   0.370359876526E-01   0.151107782260E-01  -0.300000000000E-01
      591   0.355737938078E-01   0.182894831561E-01  -0.300000000000E-01
      592   0.342538918340E-01   0.206560135125E-01  -0.300000000000E-01
      593   0.327767943156E-01   0.229277507486E-01  -0.300000000000E-01
      594   0.311492798444E-01   0.250942695684E-01  -0.300000000000E-01
      595   0.293788172949E-01   0.271456275365E-01  -0.300000000000E-01
      596   0.268942105845E-01   0.296091444834E-01  -0.300000000000E-01
      597   0.242038264135E-01   0.318461110176E-01  -0.300000000000E-01
      598   0.213282498965E-01   0.338394112885E-01  -0.300000000000E-01
      599   0.182894831177E-01   0.355737938276E-01  -0.300000000000E-01
      600   0.151107781833E-01   0.370359876700E-01  -0.300000000000E-01
1

 ***** ANSYS - ENGINEERING ANALYSIS SYSTEM  RELEASE 15.0      *****
 ANSYS Academic Teaching Advanced                  
 00203145          VERSION=LINUX x64     08:23:48  AUG 20, 2014 CP=     14.273

                                                                               


   NODE        X                   Y                   Z
      601   0.118164552433E-01   0.382148058412E-01  -0.300000000000E-01
      602   0.843394591627E-02   0.391007487944E-01  -0.300000000000E-01
      603   0.498698931340E-02   0.396879066919E-01  -0.300000000000E-01
      604   0.249837270353E-02   0.399219004286E-01  -0.300000000000E-01
      605   0.399219004280E-01   0.249837271370E-02  -0.250000000000E-01
      606   0.396879066892E-01   0.498698933546E-02  -0.250000000000E-01
      607   0.391021881568E-01   0.842727010076E-02  -0.250000000000E-01
      608   0.382188384828E-01   0.118034056538E-01  -0.250000000000E-01
      609   0.370411536538E-01   0.150981103452E-01  -0.250000000000E-01
      610   0.355800572220E-01   0.182772954257E-01  -0.250000000000E-01
      611   0.342574294382E-01   0.206501459628E-01  -0.250000000000E-01
      612   0.327767943156E-01   0.229277507486E-01  -0.250000000000E-01
      613   0.311449810652E-01   0.250996046672E-01  -0.250000000000E-01
      614   0.293695161846E-01   0.271556903628E-01  -0.250000000000E-01
      615   0.268840656831E-01   0.296183560034E-01  -0.250000000000E-01
      616   0.241929153434E-01   0.318544007507E-01  -0.250000000000E-01
      617   0.213166561422E-01   0.338467158069E-01  -0.250000000000E-01
      618   0.182772953874E-01   0.355800572417E-01  -0.250000000000E-01
      619   0.150981103026E-01   0.370411536712E-01  -0.250000000000E-01
      620   0.118034056042E-01   0.382188384981E-01  -0.250000000000E-01
      621   0.842727005968E-02   0.391021881656E-01  -0.250000000000E-01
      622   0.498698931340E-02   0.396879066919E-01  -0.250000000000E-01
      623   0.249837270353E-02   0.399219004286E-01  -0.250000000000E-01
      624   0.265197525130E-01    0.00000000000       0.379938128259E-02
      625   0.280395050261E-01    0.00000000000       0.759876256518E-02
      626   0.294400918731E-01    0.00000000000       0.111002296827E-01
      627   0.308406787201E-01    0.00000000000       0.146016968003E-01
      628   0.319918626692E-01    0.00000000000       0.174796566729E-01
      629   0.331430466182E-01    0.00000000000       0.203576165456E-01
      630   0.340715233091E-01    0.00000000000       0.226788082728E-01
      631   0.452587153294E-01   0.117656240981        0.00000000000    
      632   0.460295066279E-01   0.114143172914        0.00000000000    
      633   0.471348210042E-01   0.111134966644        0.00000000000    
      634   0.486158934946E-01   0.108292881298        0.00000000000    
      635   0.504483846876E-01   0.105663622683        0.00000000000    
      636   0.526021800835E-01   0.103290399087        0.00000000000    
      637   0.550418849857E-01   0.101212211213        0.00000000000    
      638   0.577274061635E-01   0.994632112496E-01    0.00000000000    
      639   0.606146107300E-01   0.980721416345E-01    0.00000000000    
      640   0.636560514008E-01   0.970618627064E-01    0.00000000000    
      641   0.668017462320E-01   0.964489770247E-01    0.00000000000    
      642   0.359284766909E-01   0.121243556530      -0.226788082728E-01
      643   0.368569533818E-01   0.121243556530      -0.203576165456E-01
      644   0.380081373308E-01   0.121243556530      -0.174796566729E-01
      645   0.391593212799E-01   0.121243556530      -0.146016968003E-01
      646   0.405599081269E-01   0.121243556530      -0.111002296827E-01
      647   0.419604949739E-01   0.121243556530      -0.759876256518E-02
      648   0.434802474870E-01   0.121243556530      -0.379938128259E-02
      649    0.00000000000       0.340715233091E-01  -0.226788082728E-01
      650    0.00000000000       0.331430466182E-01  -0.203576165456E-01
1

 ***** ANSYS - ENGINEERING ANALYSIS SYSTEM  RELEASE 15.0      *****
 ANSYS Academic Teaching Advanced                  
 00203145          VERSION=LINUX x64     08:23:48  AUG 20, 2014 CP=     14.275

                                                                               


   NODE        X                   Y                   Z
      651    0.00000000000       0.319918626692E-01  -0.174796566729E-01
      652    0.00000000000       0.308406787201E-01  -0.146016968002E-01
      653    0.00000000000       0.294137913531E-01  -0.110344783828E-01
      654    0.00000000000       0.279869039861E-01  -0.746725996532E-02
      655    0.00000000000       0.264934519931E-01  -0.373362998266E-02
      656    0.00000000000       0.264934519931E-01   0.373362998266E-02
      657    0.00000000000       0.279869039861E-01   0.746725996532E-02
      658    0.00000000000       0.294137913531E-01   0.110344783828E-01
      659    0.00000000000       0.308406787201E-01   0.146016968002E-01
      660    0.00000000000       0.319918626692E-01   0.174796566729E-01
      661    0.00000000000       0.331430466182E-01   0.203576165456E-01
      662    0.00000000000       0.340715233091E-01   0.226788082728E-01
      663   0.350892477591E-01   0.118745681838       0.250000000000E-01
      664   0.353565358844E-01   0.116260545987       0.250000000000E-01
      665   0.360156337254E-01   0.112873201166       0.250000000000E-01
      666   0.370051016313E-01   0.109567226557       0.250000000000E-01
      667   0.382800295928E-01   0.106450197298       0.250000000000E-01
      668   0.398486278429E-01   0.103470128131       0.250000000000E-01
      669   0.416915012667E-01   0.100661309338       0.250000000000E-01
      670   0.437951744300E-01   0.980421100911E-01   0.250000000000E-01
      671   0.461282238728E-01   0.956478868857E-01   0.250000000000E-01
      672   0.486790506479E-01   0.934871677386E-01   0.250000000000E-01
      673   0.514067545794E-01   0.915907113926E-01   0.250000000000E-01
      674   0.543019785791E-01   0.899614190794E-01   0.250000000000E-01
      675   0.568298143405E-01   0.888160032812E-01   0.250000000000E-01
      676   0.594404548883E-01   0.878744689331E-01   0.250000000000E-01
      677   0.622026435406E-01   0.871231633280E-01   0.250000000000E-01
      678   0.650169894776E-01   0.866000924113E-01   0.250000000000E-01
      679   0.675021253219E-01   0.863328042880E-01   0.250000000000E-01
      680   0.300780995720E-01   0.118745183816       0.250000000000E-01
      681   0.303120933108E-01   0.116256567194       0.250000000000E-01
      682   0.308978118432E-01   0.112816286429       0.250000000000E-01
      683   0.317811615172E-01   0.109440150876       0.250000000000E-01
      684   0.329588463462E-01   0.106145446185       0.250000000000E-01
      685   0.344199427780E-01   0.102966261104       0.250000000000E-01
      686   0.357425705618E-01   0.100593410567       0.250000000000E-01
      687   0.372232056844E-01   0.983158057812E-01   0.250000000000E-01
      688   0.388550189348E-01   0.961439518627E-01   0.250000000000E-01
      689   0.406304838154E-01   0.940878661670E-01   0.250000000000E-01
      690   0.431159343169E-01   0.916252005264E-01   0.250000000000E-01
      691   0.458070846566E-01   0.893891557791E-01   0.250000000000E-01
      692   0.486833438578E-01   0.873968407229E-01   0.250000000000E-01
      693   0.517227046126E-01   0.856634992881E-01   0.250000000000E-01
      694   0.549018896974E-01   0.842024028586E-01   0.250000000000E-01
      695   0.581965943958E-01   0.830247180317E-01   0.250000000000E-01
      696   0.615727299403E-01   0.821413683642E-01   0.250000000000E-01
      697   0.650130106866E-01   0.815556498379E-01   0.250000000000E-01
      698   0.675016272965E-01   0.813216561012E-01   0.250000000000E-01
      699   0.300780995720E-01   0.118745183816       0.300000000000E-01
      700   0.303120933108E-01   0.116256567194       0.300000000000E-01
1

 ***** ANSYS - ENGINEERING ANALYSIS SYSTEM  RELEASE 15.0      *****
 ANSYS Academic Teaching Advanced                  
 00203145          VERSION=LINUX x64     08:23:48  AUG 20, 2014 CP=     14.276

                                                                               


   NODE        X                   Y                   Z
      701   0.308992512145E-01   0.112809610572       0.300000000000E-01
      702   0.317851941742E-01   0.109427101237       0.300000000000E-01
      703   0.329640123474E-01   0.106132778304       0.300000000000E-01
      704   0.344262061922E-01   0.102954073374       0.300000000000E-01
      705   0.357461081660E-01   0.100587543017       0.300000000000E-01
      706   0.372232056844E-01   0.983158057812E-01   0.300000000000E-01
      707   0.388507201556E-01   0.961492869614E-01   0.300000000000E-01
      708   0.406211827051E-01   0.940979289933E-01   0.300000000000E-01
      709   0.431057894155E-01   0.916344120465E-01   0.300000000000E-01
      710   0.457961735865E-01   0.893974455122E-01   0.300000000000E-01
      711   0.486717501035E-01   0.874041452413E-01   0.300000000000E-01
      712   0.517105168823E-01   0.856697627023E-01   0.300000000000E-01
      713   0.548892218167E-01   0.842075688598E-01   0.300000000000E-01
      714   0.581835447567E-01   0.830287506886E-01   0.300000000000E-01
      715   0.615660540837E-01   0.821428077354E-01   0.300000000000E-01
      716   0.650130106866E-01   0.815556498379E-01   0.300000000000E-01
      717   0.675016272965E-01   0.813216561012E-01   0.300000000000E-01
      718   0.300780995720E-01   0.118745183816      -0.300000000000E-01
      719   0.303120933108E-01   0.116256567194      -0.300000000000E-01
      720   0.308992512145E-01   0.112809610572      -0.300000000000E-01
      721   0.317851941742E-01   0.109427101237      -0.300000000000E-01
      722   0.329640123474E-01   0.106132778304      -0.300000000000E-01
      723   0.344262061922E-01   0.102954073374      -0.300000000000E-01
      724   0.357461081660E-01   0.100587543017      -0.300000000000E-01
      725   0.372232056844E-01   0.983158057812E-01  -0.300000000000E-01
      726   0.388507201556E-01   0.961492869614E-01  -0.300000000000E-01
      727   0.406211827051E-01   0.940979289933E-01  -0.300000000000E-01
      728   0.431057894155E-01   0.916344120465E-01  -0.300000000000E-01
      729   0.457961735865E-01   0.893974455122E-01  -0.300000000000E-01
      730   0.486717501035E-01   0.874041452413E-01  -0.300000000000E-01
      731   0.517105168823E-01   0.856697627023E-01  -0.300000000000E-01
      732   0.548892218167E-01   0.842075688598E-01  -0.300000000000E-01
      733   0.581835447567E-01   0.830287506886E-01  -0.300000000000E-01
      734   0.615660540837E-01   0.821428077354E-01  -0.300000000000E-01
      735   0.650130106866E-01   0.815556498379E-01  -0.300000000000E-01
      736   0.675016272965E-01   0.813216561012E-01  -0.300000000000E-01
      737   0.300780995720E-01   0.118745183816      -0.250000000000E-01
      738   0.303120933108E-01   0.116256567194      -0.250000000000E-01
      739   0.308978118432E-01   0.112816286429      -0.250000000000E-01
      740   0.317811615172E-01   0.109440150876      -0.250000000000E-01
      741   0.329588463462E-01   0.106145446185      -0.250000000000E-01
      742   0.344199427780E-01   0.102966261104      -0.250000000000E-01
      743   0.357425705618E-01   0.100593410567      -0.250000000000E-01
      744   0.372232056844E-01   0.983158057812E-01  -0.250000000000E-01
      745   0.388550189348E-01   0.961439518627E-01  -0.250000000000E-01
      746   0.406304838154E-01   0.940878661670E-01  -0.250000000000E-01
      747   0.431159343169E-01   0.916252005264E-01  -0.250000000000E-01
      748   0.458070846566E-01   0.893891557791E-01  -0.250000000000E-01
      749   0.486833438578E-01   0.873968407229E-01  -0.250000000000E-01
      750   0.517227046126E-01   0.856634992881E-01  -0.250000000000E-01
1

 ***** ANSYS - ENGINEERING ANALYSIS SYSTEM  RELEASE 15.0      *****
 ANSYS Academic Teaching Advanced                  
 00203145          VERSION=LINUX x64     08:23:48  AUG 20, 2014 CP=     14.277

                                                                               


   NODE        X                   Y                   Z
      751   0.549018896974E-01   0.842024028586E-01  -0.250000000000E-01
      752   0.581965943958E-01   0.830247180317E-01  -0.250000000000E-01
      753   0.615727299403E-01   0.821413683642E-01  -0.250000000000E-01
      754   0.650130106866E-01   0.815556498379E-01  -0.250000000000E-01
      755   0.675016272965E-01   0.813216561012E-01  -0.250000000000E-01
      756   0.434802474870E-01   0.121243556530       0.379938128259E-02
      757   0.419604949739E-01   0.121243556530       0.759876256518E-02
      758   0.405599081269E-01   0.121243556530       0.111002296827E-01
      759   0.391593212799E-01   0.121243556530       0.146016968003E-01
      760   0.380081373308E-01   0.121243556530       0.174796566729E-01
      761   0.368569533818E-01   0.121243556530       0.203576165456E-01
      762   0.359284766909E-01   0.121243556530       0.226788082728E-01
      763    0.00000000000       0.117743556530      -0.250000000000E-01
      764    0.00000000000       0.114243556530      -0.250000000000E-01
      765    0.00000000000       0.110743556530      -0.250000000000E-01
      766    0.00000000000       0.107243556530      -0.250000000000E-01
      767    0.00000000000       0.103932667397      -0.250000000000E-01
      768    0.00000000000       0.100621778265      -0.250000000000E-01
      769    0.00000000000       0.973108891325E-01  -0.250000000000E-01
      770    0.00000000000       0.940000000000E-01  -0.250000000000E-01
      771    0.00000000000       0.905000000000E-01  -0.250000000000E-01
      772    0.00000000000       0.870000000000E-01  -0.250000000000E-01
      773    0.00000000000       0.835000000000E-01  -0.250000000000E-01
      774    0.00000000000       0.800000000000E-01  -0.250000000000E-01
      775    0.00000000000       0.765000000000E-01  -0.250000000000E-01
      776    0.00000000000       0.730000000000E-01  -0.250000000000E-01
      777    0.00000000000       0.695000000000E-01  -0.250000000000E-01
      778    0.00000000000       0.660000000000E-01  -0.250000000000E-01
      779    0.00000000000       0.625000000000E-01  -0.250000000000E-01
      780    0.00000000000       0.590000000000E-01  -0.250000000000E-01
      781    0.00000000000       0.555000000000E-01  -0.250000000000E-01
      782    0.00000000000       0.520000000000E-01  -0.250000000000E-01
      783    0.00000000000       0.485000000000E-01  -0.250000000000E-01
      784    0.00000000000       0.450000000000E-01  -0.250000000000E-01
      785    0.00000000000       0.425000000000E-01  -0.250000000000E-01
      786   0.667062026565E-01    0.00000000000      -0.250000000000E-01
      787   0.634124053129E-01    0.00000000000      -0.250000000000E-01
      788   0.603511872244E-01    0.00000000000      -0.250000000000E-01
      789   0.572899691358E-01    0.00000000000      -0.250000000000E-01
      790   0.541588734568E-01    0.00000000000      -0.250000000000E-01
      791   0.510277777778E-01    0.00000000000      -0.250000000000E-01
      792   0.480138888889E-01    0.00000000000      -0.250000000000E-01
      793   0.450000000000E-01    0.00000000000      -0.250000000000E-01
      794   0.425000000000E-01    0.00000000000      -0.250000000000E-01
      795   0.667062026565E-01    0.00000000000       0.250000000000E-01
      796   0.634124053129E-01    0.00000000000       0.250000000000E-01
      797   0.603511872244E-01    0.00000000000       0.250000000000E-01
      798   0.572899691358E-01    0.00000000000       0.250000000000E-01
      799   0.541588734568E-01    0.00000000000       0.250000000000E-01
      800   0.510277777778E-01    0.00000000000       0.250000000000E-01
1

 ***** ANSYS - ENGINEERING ANALYSIS SYSTEM  RELEASE 15.0      *****
 ANSYS Academic Teaching Advanced                  
 00203145          VERSION=LINUX x64     08:23:48  AUG 20, 2014 CP=     14.279

                                                                               


   NODE        X                   Y                   Z
      801   0.480138888889E-01    0.00000000000       0.250000000000E-01
      802   0.450000000000E-01    0.00000000000       0.250000000000E-01
      803   0.425000000000E-01    0.00000000000       0.250000000000E-01
      804    0.00000000000       0.117743556530       0.250000000000E-01
      805    0.00000000000       0.114243556530       0.250000000000E-01
      806    0.00000000000       0.110743556530       0.250000000000E-01
      807    0.00000000000       0.107243556530       0.250000000000E-01
      808    0.00000000000       0.103932667397       0.250000000000E-01
      809    0.00000000000       0.100621778265       0.250000000000E-01
      810    0.00000000000       0.973108891325E-01   0.250000000000E-01
      811    0.00000000000       0.940000000000E-01   0.250000000000E-01
      812    0.00000000000       0.905000000000E-01   0.250000000000E-01
      813    0.00000000000       0.870000000000E-01   0.250000000000E-01
      814    0.00000000000       0.835000000000E-01   0.250000000000E-01
      815    0.00000000000       0.800000000000E-01   0.250000000000E-01
      816    0.00000000000       0.765000000000E-01   0.250000000000E-01
      817    0.00000000000       0.730000000000E-01   0.250000000000E-01
      818    0.00000000000       0.695000000000E-01   0.250000000000E-01
      819    0.00000000000       0.660000000000E-01   0.250000000000E-01
      820    0.00000000000       0.625000000000E-01   0.250000000000E-01
      821    0.00000000000       0.590000000000E-01   0.250000000000E-01
      822    0.00000000000       0.555000000000E-01   0.250000000000E-01
      823    0.00000000000       0.520000000000E-01   0.250000000000E-01
      824    0.00000000000       0.485000000000E-01   0.250000000000E-01
      825    0.00000000000       0.450000000000E-01   0.250000000000E-01
      826    0.00000000000       0.425000000000E-01   0.250000000000E-01
      827   0.700000000000E-01   0.331088913246E-02   0.250000000000E-01
      828   0.700000000000E-01   0.662177826491E-02   0.250000000000E-01
      829   0.700000000000E-01   0.993266739737E-02   0.250000000000E-01
      830   0.700000000000E-01   0.132435565298E-01   0.250000000000E-01
      831   0.700000000000E-01   0.167435565298E-01   0.250000000000E-01
      832   0.700000000000E-01   0.202435565298E-01   0.250000000000E-01
      833   0.700000000000E-01   0.237435565298E-01   0.250000000000E-01
      834   0.700000000000E-01   0.272435565298E-01   0.250000000000E-01
      835   0.700000000000E-01   0.307435565298E-01   0.250000000000E-01
      836   0.700000000000E-01   0.342435565298E-01   0.250000000000E-01
      837   0.700000000000E-01   0.377435565298E-01   0.250000000000E-01
      838   0.700000000000E-01   0.412435565298E-01   0.250000000000E-01
      839   0.700000000000E-01   0.447435565298E-01   0.250000000000E-01
      840   0.700000000000E-01   0.482435565298E-01   0.250000000000E-01
      841   0.700000000000E-01   0.517435565298E-01   0.250000000000E-01
      842   0.700000000000E-01   0.552435565298E-01   0.250000000000E-01
      843   0.700000000000E-01   0.587435565298E-01   0.250000000000E-01
      844   0.700000000000E-01   0.622435565298E-01   0.250000000000E-01
      845   0.700000000000E-01   0.657435565298E-01   0.250000000000E-01
      846   0.700000000000E-01   0.692435565298E-01   0.250000000000E-01
      847   0.700000000000E-01   0.727435565298E-01   0.250000000000E-01
      848   0.700000000000E-01   0.762435565298E-01   0.250000000000E-01
      849   0.700000000000E-01   0.787435565298E-01   0.250000000000E-01
      850   0.329379734354E-02   0.121243556530       0.250000000000E-01
1

 ***** ANSYS - ENGINEERING ANALYSIS SYSTEM  RELEASE 15.0      *****
 ANSYS Academic Teaching Advanced                  
 00203145          VERSION=LINUX x64     08:23:48  AUG 20, 2014 CP=     14.281

                                                                               


   NODE        X                   Y                   Z
      851   0.658759468708E-02   0.121243556530       0.250000000000E-01
      852   0.964881277564E-02   0.121243556530       0.250000000000E-01
      853   0.127100308642E-01   0.121243556530       0.250000000000E-01
      854   0.158411265432E-01   0.121243556530       0.250000000000E-01
      855   0.189722222222E-01   0.121243556530       0.250000000000E-01
      856   0.219861111111E-01   0.121243556530       0.250000000000E-01
      857   0.250000000000E-01   0.121243556530       0.250000000000E-01
      858   0.275000000000E-01   0.121243556530       0.250000000000E-01
      859   0.329379734354E-02   0.121243556530      -0.250000000000E-01
      860   0.658759468708E-02   0.121243556530      -0.250000000000E-01
      861   0.964881277564E-02   0.121243556530      -0.250000000000E-01
      862   0.127100308642E-01   0.121243556530      -0.250000000000E-01
      863   0.158411265432E-01   0.121243556530      -0.250000000000E-01
      864   0.189722222222E-01   0.121243556530      -0.250000000000E-01
      865   0.219861111111E-01   0.121243556530      -0.250000000000E-01
      866   0.250000000000E-01   0.121243556530      -0.250000000000E-01
      867   0.275000000000E-01   0.121243556530      -0.250000000000E-01
      868   0.700000000000E-01   0.331088913246E-02  -0.250000000000E-01
      869   0.700000000000E-01   0.662177826491E-02  -0.250000000000E-01
      870   0.700000000000E-01   0.993266739737E-02  -0.250000000000E-01
      871   0.700000000000E-01   0.132435565298E-01  -0.250000000000E-01
      872   0.700000000000E-01   0.167435565298E-01  -0.250000000000E-01
      873   0.700000000000E-01   0.202435565298E-01  -0.250000000000E-01
      874   0.700000000000E-01   0.237435565298E-01  -0.250000000000E-01
      875   0.700000000000E-01   0.272435565298E-01  -0.250000000000E-01
      876   0.700000000000E-01   0.307435565298E-01  -0.250000000000E-01
      877   0.700000000000E-01   0.342435565298E-01  -0.250000000000E-01
      878   0.700000000000E-01   0.377435565298E-01  -0.250000000000E-01
      879   0.700000000000E-01   0.412435565298E-01  -0.250000000000E-01
      880   0.700000000000E-01   0.447435565298E-01  -0.250000000000E-01
      881   0.700000000000E-01   0.482435565298E-01  -0.250000000000E-01
      882   0.700000000000E-01   0.517435565298E-01  -0.250000000000E-01
      883   0.700000000000E-01   0.552435565298E-01  -0.250000000000E-01
      884   0.700000000000E-01   0.587435565298E-01  -0.250000000000E-01
      885   0.700000000000E-01   0.622435565298E-01  -0.250000000000E-01
      886   0.700000000000E-01   0.657435565298E-01  -0.250000000000E-01
      887   0.700000000000E-01   0.692435565298E-01  -0.250000000000E-01
      888   0.700000000000E-01   0.727435565298E-01  -0.250000000000E-01
      889   0.700000000000E-01   0.762435565298E-01  -0.250000000000E-01
      890   0.700000000000E-01   0.787435565298E-01  -0.250000000000E-01
      891   0.429402686349E-01   0.112304682533       0.874484761597E-02
      892   0.600654199407E-01   0.936332149400E-01   0.108581472837E-01
      893   0.551736134097E-01   0.930730820672E-01   0.170847571294E-01
      894   0.361221422243E-01   0.118585426247       0.224549477691E-01
      895   0.654878375964E-01   0.934611022562E-01   0.786620171556E-02
      896   0.661216474481E-01   0.886753543434E-01   0.194957854166E-01
      897   0.440977072906E-01   0.113290888386       0.523909959383E-02
      898   0.644904459179E-01   0.882471923957E-01   0.211329492581E-01
      899   0.658079810589E-01   0.871748505312E-01   0.233141069123E-01
      900   0.682983883894E-01   0.878946410775E-01   0.209807479273E-01
1

 ***** ANSYS - ENGINEERING ANALYSIS SYSTEM  RELEASE 15.0      *****
 ANSYS Academic Teaching Advanced                  
 00203145          VERSION=LINUX x64     08:23:48  AUG 20, 2014 CP=     14.283

                                                                               


   NODE        X                   Y                   Z
      901   0.682983940786E-01   0.869651511182E-01   0.233015348158E-01
      902   0.626356233702E-01   0.949240908964E-01   0.582588795498E-02
      903   0.678352521770E-01   0.938855130148E-01   0.610888600004E-02
      904   0.646640437425E-01   0.958198167927E-01   0.244415732961E-02
      905   0.678352585304E-01   0.953637333417E-01   0.242550316906E-02
      906   0.423438242685E-01   0.115180007487       0.828270812362E-02
      907   0.447681041727E-01   0.115156010258       0.238965569759E-02
      908   0.426547356048E-01   0.118702808034       0.615761464346E-02
      909   0.441804628335E-01   0.118702817562       0.236061275882E-02
      910   0.459349751313E-01   0.103422009216       0.123637500144E-01
      911   0.507234073196E-01   0.977806737319E-01   0.134149974706E-01
      912   0.569257710133E-01   0.933680459510E-01   0.144731915031E-01
      913   0.628663344443E-01   0.919734659605E-01   0.128171372514E-01
      914   0.630360941619E-01   0.905951205090E-01   0.160741137018E-01
      915   0.423600887855E-01   0.110260912191       0.118548572988E-01
      916   0.444290586084E-01   0.108483188990       0.894490986924E-02
      917   0.460903004248E-01   0.105493720695       0.907736472664E-02
      918   0.481729040839E-01   0.102520040531       0.939367876774E-02
      919   0.505519094980E-01   0.999467135013E-01   0.960165337712E-02
      920   0.532894058777E-01   0.973618764999E-01   0.103688289398E-01
      921   0.565624431859E-01   0.953150792665E-01   0.105091546625E-01
      922   0.438455631713E-01   0.104302699374       0.154040759128E-01
      923   0.420489251664E-01   0.107467819281       0.154035269223E-01
      924   0.481014661234E-01   0.987255925780E-01   0.160256521176E-01
      925   0.458959640998E-01   0.101305089319       0.157043405685E-01
      926   0.527031284293E-01   0.943396458274E-01   0.174610130477E-01
      927   0.507632938722E-01   0.960498048823E-01   0.167455040020E-01
      928   0.614312685744E-01   0.903016402734E-01   0.177661720411E-01
      929   0.586604411840E-01   0.913551818487E-01   0.174179475784E-01
      930   0.405568126359E-01   0.111287880572       0.152020256304E-01
      931   0.624400195996E-01   0.937516639813E-01   0.878102217433E-02
      932   0.654681759885E-01   0.909438228837E-01   0.140919091639E-01
      933   0.640163503097E-01   0.891937643187E-01   0.190089429294E-01
      934   0.464143930055E-01   0.107413437320       0.585354117887E-02
      935   0.505168242285E-01   0.101855726804       0.621508566195E-02
      936   0.562452608403E-01   0.972718992456E-01   0.659383123261E-02
      937   0.385877747003E-01   0.112139068819       0.192625982170E-01
      938   0.417850248023E-01   0.105205238908       0.186369389351E-01
      939   0.457975226850E-01   0.994301332416E-01   0.189549470464E-01
      940   0.499160755429E-01   0.950763493704E-01   0.199654000220E-01
      941   0.543121119122E-01   0.920773534536E-01   0.202940681200E-01
      942   0.595986014136E-01   0.898033357568E-01   0.202902687069E-01
      943   0.392683450532E-01   0.115057861070       0.158700135613E-01
      944   0.676399548717E-01   0.927150817253E-01   0.906481711018E-02
      945   0.676399586173E-01   0.912726466351E-01   0.126592158040E-01
      946   0.678175101638E-01   0.899448913589E-01   0.159366664644E-01
      947   0.678175110101E-01   0.887834535106E-01   0.188334781243E-01
      948   0.454264406881E-01   0.112298401788       0.287753869911E-02
      949   0.467071083957E-01   0.109361576383       0.287106830851E-02
      950   0.484049477127E-01   0.106393533657       0.302048642555E-02
1

 ***** ANSYS - ENGINEERING ANALYSIS SYSTEM  RELEASE 15.0      *****
 ANSYS Academic Teaching Advanced                  
 00203145          VERSION=LINUX x64     08:23:48  AUG 20, 2014 CP=     14.283

                                                                               


   NODE        X                   Y                   Z
      951   0.503815304365E-01   0.103872012133       0.301025219064E-02
      952   0.528069122921E-01   0.101344600292       0.324433075726E-02
      953   0.553570631100E-01   0.994051084090E-01   0.323304995830E-02
      954   0.586757161477E-01   0.974358397476E-01   0.340934982756E-02
      955   0.616470098639E-01   0.962372959410E-01   0.341118611657E-02
      956   0.371065189520E-01   0.112725412502       0.224463019036E-01
      957   0.363941455058E-01   0.116101184129       0.224925529897E-01
      958   0.399425267890E-01   0.105934190542       0.218292795672E-01
      959   0.385595293634E-01   0.109004180494       0.218469590295E-01
      960   0.437385087691E-01   0.100066264489       0.218409605353E-01
      961   0.417628855575E-01   0.102782684989       0.218407675028E-01
      962   0.483689881061E-01   0.951922740241E-01   0.221525987397E-01
      963   0.459085427127E-01   0.974545922716E-01   0.221431160338E-01
      964   0.530534359530E-01   0.916202353165E-01   0.228202493809E-01
      965   0.502518713563E-01   0.934047939252E-01   0.228297020491E-01
      966   0.581410862194E-01   0.893872475099E-01   0.224800807700E-01
      967   0.555805094930E-01   0.904566539083E-01   0.224909950931E-01
      968   0.637033860246E-01   0.876977506028E-01   0.228290851222E-01
      969   0.609146652604E-01   0.883421726750E-01   0.228318656369E-01
      970   0.399649803979E-01   0.117690605076       0.131110882467E-01
      971   0.413743970942E-01   0.117690617549       0.961312801435E-02
      972   0.370531488237E-01   0.118585420081       0.201347646202E-01
      973   0.382076735548E-01   0.118585428892       0.172581368631E-01
      974   0.374342361149E-01   0.115942202703       0.199861098086E-01
      975   0.411432881977E-01   0.114181743401       0.117705788280E-01
      976   0.624001867411E-01   0.888508377841E-01   0.206807290373E-01
      977   0.568687116677E-01   0.909725373552E-01   0.199911107005E-01
      978   0.518505843158E-01   0.933589201067E-01   0.206773045264E-01
      979   0.480876312204E-01   0.969319698305E-01   0.193231764757E-01
      980   0.437335762137E-01   0.102132136655       0.187085043324E-01
      981   0.401422178017E-01   0.108452136750       0.187060487962E-01
      982   0.596660735891E-01   0.954968690141E-01   0.685785612930E-02
      983   0.530554208414E-01   0.994494678885E-01   0.651544494565E-02
      984   0.482507868667E-01   0.104533234728       0.606853900688E-02
      985   0.448958096040E-01   0.110480000429       0.578591158610E-02
      986   0.656438200276E-01   0.895972487718E-01   0.173617985439E-01
      987   0.652931115435E-01   0.922942739123E-01   0.108235877384E-01
      988   0.604748750402E-01   0.917976693899E-01   0.148703865732E-01
      989   0.535561801779E-01   0.953211654875E-01   0.142450962478E-01
      990   0.481448085422E-01   0.100549557543       0.127450574669E-01
      991   0.440297142040E-01   0.106520014845       0.121340414987E-01
      992   0.435597314974E-01   0.116181641942       0.480113194564E-02
      993   0.656825637783E-01   0.946279314050E-01   0.490881601801E-02
      994   0.666005429599E-01   0.877623531264E-01   0.216333498646E-01
      995   0.325000000000E-01   0.121243556530      -0.250000000000E-01
      996   0.325000000000E-01   0.121243556530       0.250000000000E-01
      997   0.241192699157E-01   0.121243556530      -0.112085074661E-01
      998   0.245006538876E-01   0.121243556530       0.136470494276E-01
      999   0.107015579990E-01   0.121243556530      -0.124764926175E-01
     1000   0.122720086915E-01   0.121243556530       0.137380928268E-01
1

 ***** ANSYS - ENGINEERING ANALYSIS SYSTEM  RELEASE 15.0      *****
[...]
    12432   0.229302001453E-02   0.197355467419E-01  -0.463306208585E-02
    12433   0.278086026052E-01   0.251545558608E-01  -0.275000000000E-01
    12434   0.295075911156E-01   0.230456174669E-01  -0.275000000000E-01
    12435   0.314640832364E-01   0.203505895736E-01  -0.275000000000E-01
    12436   0.675084947388E-01   0.889248907392E-01  -0.308974981749E-01
    12437   0.472524243882E-01   0.514500888634E-01   0.353237310052E-01
    12438   0.268845696530E-01   0.681395539605E-01   0.341464256495E-01
    12439   0.672594557301E-01   0.960261071158E-02   0.340100580916E-01
    12440   0.576828731173E-01   0.163994126414E-01   0.330134996772E-01
    12441   0.350000000000E-01   0.401063917320E-01   0.957943099119    
    12442   0.350000000000E-01   0.501925446437E-01   0.930713149478    
    12443   0.350000000000E-01   0.200876470956E-01   0.943753259237    
    12444   0.350000000000E-01   0.604232646650E-01   0.957983205262    
    12445   0.525000000000E-01   0.403353210361E-01   0.978753259237    
    12446   0.525000000000E-01   0.607094006894E-01   0.978874121843    
    12447   0.175000000000E-01   0.605832915099E-01   0.979229946025    
    12448   0.525000000000E-01   0.200876470956E-01   0.961253259237    
    12449   0.175000000000E-01   0.200187446364E-01   0.961689839882    
    12450   0.350000000000E-01   0.202476739405E-01   0.982500000000    
1

 ***** ANSYS - ENGINEERING ANALYSIS SYSTEM  RELEASE 15.0      *****
 ANSYS Academic Teaching Advanced                  
 00203145          VERSION=LINUX x64     08:23:48  AUG 20, 2014 CP=     14.618

                                                                               


   NODE        X                   Y                   Z
    12451   0.520350512887E-02   0.221420760517E-01   0.996536301019E-02
    12452   0.383316489163E-02   0.295345346671E-01   0.223881757408E-01
    12453   0.699789542705E-02   0.619511213154E-02   0.347147550214E-01
    12454   0.103589737342E-01   0.118330862396      -0.357146215255E-01
    12455   0.350000000000E-01   0.908398601123E-01   0.709128496320    
    12456   0.350000000000E-01   0.908398601123E-01   0.749344147631    
    12457   0.675065053433E-01   0.826496031839E-01  -0.287500000000E-01
    12458   0.675084947388E-01   0.851718244705E-01  -0.262500000000E-01
    12459   0.687532526717E-01   0.838215798568E-01  -0.262500000000E-01
    12460   0.681051288283E-01   0.783356360285E-01  -0.348412291828E-01
    12461   0.588119998225E-01   0.854516098109E-01  -0.275000000000E-01
    12462   0.562427616679E-01   0.864950848840E-01  -0.275000000000E-01
    12463   0.342843460883E-01   0.149829065646E-01  -0.275000000000E-01
    12464   0.244888976761E-01   0.118449282259       0.350596068511E-01
    12465   0.266327935571E-01   0.119274519074       0.350596068511E-01
    12466   0.350000000000E-01   0.300109582926E-01   0.651333393615    
    12467   0.628412747756E-02   0.204381072717E-01  -0.179642811503E-01
    12468   0.598841282111E-01   0.677449289216E-01  -0.353764569014E-01
    12469   0.472376121172E-01   0.914423066254E-01  -0.275000000000E-01
    12470   0.371656854024E-01   0.498499993915E-02  -0.275000000000E-01
    12471   0.125199327099E-01   0.118330862396       0.332659814959E-01
    12472   0.158468942363E-01   0.118021290515       0.332659814959E-01
    12473   0.222902090712E-01   0.111167704329       0.347138991207E-01
    12474   0.866654662021E-02   0.118330862396       0.325722467778E-01
    12475   0.595160077820E-02   0.118914258641       0.325722467778E-01
    12476   0.579711528460E-01   0.640867136713E-01   0.344701179862E-01
    12477   0.611469485829E-01   0.657847923377E-01   0.344701179862E-01
    12478   0.385359167636E-01   0.100892966956       0.275000000000E-01
    12479   0.603281043813E-01   0.112169160312E-01   0.330134996772E-01
    12480   0.516604498294E-01   0.213050445147E-01   0.329163925350E-01
    12481   0.350000000000E-01   0.306441508235E-01  -0.839810091863    
    12482   0.175000000000E-01   0.198503221388E-01  -0.961374121843    
    12483   0.350000000000E-01   0.906745595830E-01  -0.813643244977    
    12484   0.350000000000E-01   0.606969321416E-01  -0.821876121252    
    12485   0.350000000000E-01   0.912659290884E-01  -0.839810091863    
    12486   0.350000000000E-01   0.101238369702       0.982500000000    
    12487   0.525000000000E-01   0.810783181864E-01   0.978874121843    
    12488   0.175000000000E-01   0.809522090069E-01   0.979229946025    
    12489   0.505358958617E-02   0.961783469915E-01   0.328702417761E-01
    12490   0.179800937765E-01   0.453538641518E-01  -0.339906470478E-01
    12491   0.218128639891E-01   0.463518079563E-01  -0.339906470478E-01
    12492   0.192859761591E-01   0.484457993012E-01  -0.339906470478E-01
    12493   0.241797281666E-01   0.852799298685E-01  -0.326712833345E-01
    12494   0.350000000000E-01   0.606217782649E-01  -0.469636353793    
    12495   0.350000000000E-01   0.608195916851E-01  -0.194160175830    
    12496   0.350000000000E-01   0.911125821856E-01  -0.177388109304    
    12497   0.350000000000E-01   0.303287877644E-01  -0.213191052008    
    12498   0.350000000000E-01   0.304908039206E-01  -0.181240491413    
    12499   0.350000000000E-01   0.304908039206E-01  -0.155344390339    
    12500   0.490242755041E-02   0.108705276802       0.501074100110E-01
1

 ***** ANSYS - ENGINEERING ANALYSIS SYSTEM  RELEASE 15.0      *****
 ANSYS Academic Teaching Advanced                  
 00203145          VERSION=LINUX x64     08:23:48  AUG 20, 2014 CP=     14.618

                                                                               


   NODE        X                   Y                   Z
    12501   0.138247907456E-01   0.201221835242E-01  -0.814278976147E-02
    12502   0.184248953703E-01   0.114573606503E-01  -0.122762995306E-02
    12503   0.455686993220E-01   0.112029824984      -0.125081428484E-01
    12504   0.461903385897E-01   0.117723918883      -0.134749095363E-01
    12505   0.350000000000E-01   0.605037455842E-01  -0.957995072783    
    12506   0.175000000000E-01   0.398555089662E-01  -0.978874121843    
    12507   0.360717320578E-01   0.249150527142E-02   0.262500000000E-01
    12508   0.321933933153E-01   0.249150527142E-02   0.305504462898E-01
    12509   0.374219766723E-01   0.124674733386E-02   0.262500000000E-01
    12510   0.262494462142E-01   0.856751340122E-02  -0.174337571640E-01
    12511   0.257967207230E-01   0.264690766723E-02  -0.185473035766E-01
    12512   0.687508136487E-01   0.825326063155E-01  -0.275000000000E-01
    12513   0.327329778662E-01   0.119994370173       0.294409770731E-01
    12514   0.278086026052E-01   0.251545558608E-01   0.275000000000E-01
    12515   0.253805581645E-01   0.274273914235E-01   0.275000000000E-01
    12516   0.450903593383E-01   0.704085111361E-02   0.334062309563E-01
    12517   0.608504902326E-01   0.995549990819E-01  -0.809062674139E-02
    12518   0.156996102536E-01   0.117338242725       0.369950200325E-01
    12519   0.350000000000E-01   0.606217782649E-01  -0.427453424691    
    12520   0.434626882334E-01   0.200357271102E-02   0.343004632951E-01
    12521   0.586583352089E-01   0.522134810885E-01   0.401526355792E-01
    12522   0.525000000000E-01   0.606637724291E-01  -0.979241813545    
    12523   0.525000000000E-01   0.809839774031E-01  -0.979202773290    
    12524   0.639937359906E-01   0.498858674124E-01   0.348289045740E-01
    12525   0.669770762275E-01   0.515183356275E-01   0.348289045740E-01
    12526   0.237278793196E-01   0.954245214640E-01   0.344134712219E-01
    12527   0.350000000000E-01   0.606217782649E-01   0.507882676832    
    12528   0.350000000000E-01   0.900292900472E-01   0.544017956774    
    12529   0.350000000000E-01   0.294075117823E-01   0.575918150559    
    12530   0.350000000000E-01   0.900292900472E-01   0.594214013116    
    12531   0.675065053433E-01   0.804285316159E-01   0.346833955358E-01
    12532   0.350000000000E-01   0.294075117823E-01   0.616133801869    
    12533   0.328499747357E-01   0.118750061862       0.306909770731E-01
    12534   0.190128884444E-01   0.225581376802E-01   0.199687446640E-01
    12535   0.223208112866E-01   0.657424022757E-02   0.801771687254E-02
    12536   0.175000000000E-01   0.805881818040E-01  -0.978753259237    
    12537   0.270364652367E-01   0.560004867493E-01   0.341164575517E-01
    12538   0.282900492599E-01   0.118750061862       0.350596068511E-01
    12539   0.266577834973E-01   0.116551392446       0.350596068511E-01
    12540   0.350000000000E-01   0.584518326704E-01  -0.222717732851    
    12541   0.350000000000E-01   0.100995882589      -0.982500000000    
    12542   0.350000000000E-01   0.281230449060E-01  -0.246052589937    
    12543   0.350000000000E-01   0.913543832828E-01  -0.275413990311    
    12544   0.350000000000E-01   0.913543832828E-01  -0.315459314541    
    12545   0.350000000000E-01   0.307326050179E-01  -0.285222008936    
    12546   0.350000000000E-01   0.307326050179E-01  -0.325437660246    
    12547   0.350000000000E-01   0.705666242970E-01   0.930834012084    
    12548   0.350000000000E-01   0.588556499239E-01  -0.254533038468    
    12549   0.346496200706E-01   0.293959158316E-01   0.321718988568E-01
    12550   0.387109502140E-01   0.124918635686E-02   0.275000000000E-01
1

 ***** ANSYS - ENGINEERING ANALYSIS SYSTEM  RELEASE 15.0      *****
 ANSYS Academic Teaching Advanced                  
 00203145          VERSION=LINUX x64     08:23:48  AUG 20, 2014 CP=     14.619

                                                                               


   NODE        X                   Y                   Z
    12551   0.385939533446E-01   0.249349466773E-02   0.287500000000E-01
    12552   0.350000000000E-01   0.301048975481E-01   0.916959890241    
    12553   0.175000000000E-01   0.402664185769E-01   0.979189839882    
    12554   0.234320850383E-01   0.565036222789E-01   0.341164575517E-01
    12555   0.490473368125E-01   0.100493556530       0.692625860971E-01
    12556   0.350000000000E-01   0.606217782649E-01  -0.630498959036    
    12557   0.232650128757E-01   0.279378720239E-01   0.303845082968E-01
    12558   0.867512503656E-02   0.271984881451E-01  -0.206139189844E-01
    12559   0.137666790300E-01   0.347437305413E-01   0.275000000000E-01
    12560   0.468600858003E-01   0.108071774244       0.236606737599E-01
    12561   0.588119998225E-01   0.854516098109E-01   0.275000000000E-01
    12562   0.497556138756E-01   0.528329320079E-01   0.353237310052E-01
    12563   0.386329268863E-01   0.249593369072E-02  -0.262500000000E-01
    12564   0.221223601521E-02   0.113664258641       0.345414589915E-01
    12565   0.303850773294E-01   0.588882873504E-01  -0.344723308086E-01
    12566   0.108505263272E-01   0.869202090853E-01   0.328192853928E-01
    12567   0.933687635266E-02   0.982027115607E-01  -0.326954343915E-01
    12568   0.167871534165E-01   0.529883936498E-01   0.344377489388E-01
    12569   0.136148962503E-01   0.503866150769E-01   0.344377489388E-01
    12570   0.114067970324E-01   0.647680419600E-01   0.339728196710E-01
    12571   0.844450308739E-02   0.630328031310E-01   0.339728196710E-01
    12572   0.315557634937E-01   0.898151945027E-01   0.701722849245E-01
    12573   0.254368124124E-01   0.587712854055E-01   0.341164575517E-01
    12574   0.574469144652E-01   0.434711367161E-01   0.392931395769E-01
    12575   0.604467371851E-01   0.466068316450E-01   0.441220441509E-01
    12576   0.670001772801E-01   0.480038580021E-01   0.348289045740E-01
    12577   0.544404731757E-01   0.453531461264E-01   0.392931395769E-01
    12578   0.526520711995E-01   0.509597955699E-01   0.353237310052E-01
    12579   0.296629258365E-01   0.703252821738E-01   0.341464256495E-01
    12580   0.328616214697E-01   0.395913060581E-01   0.323337459564E-01
    12581   0.350000000000E-01   0.905100889771E-01   0.285014864780    
    12582   0.350000000000E-01   0.905100889771E-01   0.325230516091    
    12583   0.350000000000E-01   0.302180818474E-01   0.690832633763    
    12584   0.557198112376E-01   0.817792999103E-01   0.344162521511E-01
    12585   0.350000000000E-01   0.887448231709E-01  -0.239550592948    
    12586   0.111865744619E-01   0.357923978153E-01   0.275000000000E-01
    12587   0.199202334448E-02   0.432528732154E-01   0.348557521496E-01
    12588   0.350000000000E-01   0.867292500263E-01   0.167617412852    
    12589   0.350000000000E-01   0.562312811742E-01   0.180349343023    
    12590   0.175000000000E-01   0.602192643070E-01  -0.978753259237    
    12591   0.170540672629E-02   0.299992587467E-01   0.226547890117E-01
    12592   0.350000000000E-01   0.906327365576E-01   0.629413604861    
    12593   0.313670731137E-01   0.118747622839       0.262500000000E-01
    12594   0.390626283983E-01   0.872078602265E-01   0.323327345401E-01
    12595   0.422081785675E-01   0.960700195422E-01   0.275000000000E-01
    12596   0.446501166765E-01   0.937925483660E-01   0.275000000000E-01
    12597   0.541409186465E-01   0.835752245677E-02   0.588874092673E-01
    12598   0.672594557301E-01   0.104492026894E-01  -0.345356591999E-01
    12599   0.386329268863E-01   0.249593369072E-02   0.262500000000E-01
    12600   0.280980460003E-01   0.109987625802      -0.335077637434E-01
1

 ***** ANSYS - ENGINEERING ANALYSIS SYSTEM  RELEASE 15.0      *****
 ANSYS Academic Teaching Advanced                  
 00203145          VERSION=LINUX x64     08:23:48  AUG 20, 2014 CP=     14.621

                                                                               


   NODE        X                   Y                   Z
    12601   0.670333932049E-01   0.369818164088E-01  -0.365927699582E-01
    12602   0.287231537082E-02   0.101102753408      -0.332226138623E-01
    12603   0.295249604662E-02   0.864397003562E-01  -0.335468349417E-01
    12604   0.198358910759E-01   0.316414745690E-01   0.275000000000E-01
    12605   0.311842904265E-01   0.394209450573E-01  -0.336409074813E-01
    12606   0.278044663056E-01   0.417401351228E-01  -0.336409074813E-01
    12607   0.544430391032E-01   0.658273923397E-01   0.344701179862E-01
    12608   0.616017053338E-01   0.692835064677E-01   0.344701179862E-01
    12609   0.115122219497E-01   0.285458091314E-01   0.223304252933E-01
    12610   0.670001772801E-01   0.416762459324E-01   0.348179648184E-01
    12611   0.639769239468E-01   0.400121323095E-01   0.348179648184E-01
    12612   0.670115719812E-01   0.381609285972E-01   0.348179648184E-01
    12613   0.249150526122E-02   0.344586552847E-01  -0.274691809711E-01
    12614   0.124674732835E-02   0.358088998984E-01  -0.274691809711E-01
    12615   0.249349465670E-02   0.369808765714E-01  -0.299691809711E-01
    12616   0.374024198505E-02   0.385159300190E-01  -0.275000000000E-01
    12617   0.680079766555E-01   0.786806784611E-01   0.346833955358E-01
    12618   0.676882546973E-01   0.984311204004E-01  -0.933864016034E-02
    12619   0.350000000000E-01   0.909505660293E-01  -0.207344143190    
    12620   0.350000000000E-01   0.902873978615E-01   0.874676523034    
    12621   0.124918635131E-02   0.370978734398E-01  -0.287191809711E-01
    12622   0.189476459242E-01   0.118449282259       0.332659814959E-01
    12623   0.593209129906E-01   0.964839779631E-01   0.146426670266E-01
    12624   0.298253106228E-02   0.730000000000E-01  -0.367777208559E-01
    12625   0.350000000000E-01   0.299948916343E-01   0.839675883263    
    12626   0.350000000000E-01   0.296656195966E-01   0.885636417411    
    12627   0.350000000000E-01   0.596605112309E-01   0.864783708919    
    12628   0.350000000000E-01   0.600488678960E-01   0.820424539090    
    12629   0.650150000821E-01   0.840778711246E-01   0.275000000000E-01
    12630   0.216734256819E-01   0.835455040761E-02   0.536343659185E-02
    12631   0.191449222731E-01   0.122988352765E-01   0.296178855933E-02
    12632   0.268835502781E-01   0.517611205578E-02   0.156683058272E-01
    12633   0.111865744619E-01   0.357923978153E-01  -0.275000000000E-01
    12634   0.295597604013E-01   0.265061687334E-02   0.217439633953E-01
    12635   0.371752041046E-01   0.124918635686E-02  -0.287761415541E-01
    12636   0.665000221334E-02   0.265634981369E-01  -0.177287712270E-01
    12637   0.385159300169E-01   0.374024200159E-02  -0.275000000000E-01
    12638   0.227930627237E-01   0.297776331640E-01   0.275000000000E-01
    12639   0.477793944169E-01   0.702354314923E-01   0.333254331350E-01
    12640   0.509516515831E-01   0.728372100652E-01   0.333254331350E-01
    12641   0.574573835731E-01   0.738022496287E-01   0.446116561305E-01
    12642   0.340219514080E-01   0.119996809196       0.281909770731E-01
    12643   0.314840699831E-01   0.117503314528       0.275000000000E-01
    12644   0.544236611320E-01   0.418070230932E-01   0.392931395769E-01
    12645   0.164689867177E-02   0.117475480566      -0.351688796833E-01
    12646   0.350000000000E-01   0.900923593609E-01   0.243093219472    
    12647   0.350000000000E-01   0.593588918082E-01   0.251366523846    
    12648   0.350000000000E-01   0.595943905088E-01   0.219570608139    
    12649   0.350000000000E-01   0.907266758131E-01   0.916959890241    
    12650   0.358862305629E-01   0.124674733386E-02  -0.275261415541E-01
1

 ***** ANSYS - ENGINEERING ANALYSIS SYSTEM  RELEASE 15.0      *****
 ANSYS Academic Teaching Advanced                  
 00203145          VERSION=LINUX x64     08:23:48  AUG 20, 2014 CP=     14.621

                                                                               


   NODE        X                   Y                   Z
    12651   0.305978523127E-01   0.249150527142E-02   0.242490617234E-01
    12652   0.666940061748E-01   0.291236881542E-01  -0.328516544402E-01
    12653   0.350000000000E-01   0.606217782649E-01   0.388902390240    
    12654   0.350000000000E-01   0.606217782649E-01   0.348810329095    
    12655   0.350000000000E-01   0.298883107122E-01   0.315250120012    
    12656   0.350000000000E-01   0.606217782649E-01   0.427451374211    
    12657   0.350000000000E-01   0.597705171448E-01   0.901852064586    
    12658   0.249150526122E-02   0.360717320593E-01   0.262500000000E-01
    12659   0.385159300169E-01   0.374024200159E-02   0.275000000000E-01
    12660   0.124674732835E-02   0.374219766730E-01   0.262500000000E-01
    12661   0.374024198505E-02   0.385159300190E-01   0.275000000000E-01
    12662   0.298253106228E-02   0.794397003562E-01  -0.335468349417E-01
    12663   0.350000000000E-01   0.302180818474E-01   0.731048285074    
    12664   0.506753107865E-01   0.284245509457E-02  -0.334106626384E-01
    12665   0.467892024775E-01   0.544958564270E-01   0.353237310052E-01
    12666   0.350000000000E-01   0.907455876777E-01   0.213003297762    
    12667   0.350000000000E-01   0.606217782649E-01  -0.349122637802    
    12668   0.350000000000E-01   0.606217782649E-01  -0.389206936702    
    12669   0.350000000000E-01   0.906166698992E-01   0.839675883263    
    12670   0.350000000000E-01   0.906757545266E-01   0.790101701894    
    12671   0.249349465670E-02   0.415050200606E-01   0.348557521496E-01
    12672   0.350000000000E-01   0.300539762617E-01   0.812021490648    
    12673   0.350000000000E-01   0.906327365576E-01   0.669629256172    
    12674   0.350000000000E-01   0.606217782649E-01   0.469331973026    
    12675   0.350000000000E-01   0.606217782649E-01  -0.507884727313    
    12676   0.350000000000E-01   0.298883107122E-01   0.275206846156    
    12677   0.350000000000E-01   0.867292500263E-01   0.141721311777    
    12678   0.410327020962E-01   0.722356963755E-01  -0.347938103229E-01
    12679   0.221223601521E-02   0.115146182677      -0.334188796833E-01
    12680   0.350000000000E-01   0.301238094128E-01   0.207156388944    
    12681   0.350000000000E-01   0.294705810960E-01   0.236228912917    
