
 PRINT DOF  NODAL SOLUTION PER NODE
1

 ***** ANSYS - ENGINEERING ANALYSIS SYSTEM  RELEASE 15.0      *****
 ANSYS Academic Teaching Advanced                  
 00203145          VERSION=LINUX x64     08:23:48  AUG 20, 2014 CP=     13.865

                                                                               

 
  ***** POST1 NODAL DEGREE OF FREEDOM LISTING *****                            
 
  LOAD STEP=     1  SUBSTEP=     1                                             
   TIME=    1.0000      LOAD CASE=   0                                         
 
    NODE      VOLT  
       1   118.26    
       2  0.17585    
       3   150.00    
       4   150.00    
       5   150.00    
       6   118.39    
       7   150.00    
       8   150.00    
       9   150.00    
      10  -118.18    
      11  -117.85    
      12  -150.00    
      13   150.00    
      14  -150.00    
      15   150.00    
      16  -150.00    
      17   150.00    
      18   150.00    
      19  -150.00    
      20  -150.00    
      21  -150.00    
      22  -150.00    
      23   150.00    
      24  -150.00    
      25  -200.00    
      26  -150.00    
      27  -150.00    
      28  -200.00    
      29  -150.00    
      30   350.00    
      31   350.00    
      32   350.00    
      33   350.00    
      34  -200.00    
      35  -200.00    
      36   118.20    
      37   117.62    
      38  0.33144E-01
      39  0.36221E-01
1

 ***** ANSYS - ENGINEERING ANALYSIS SYSTEM  RELEASE 15.0      *****
 ANSYS Academic Teaching Advanced                  
 00203145          VERSION=LINUX x64     08:23:48  AUG 20, 2014 CP=     13.867

                                                                               

 
  ***** POST1 NODAL DEGREE OF FREEDOM LISTING *****                            
 
  LOAD STEP=     1  SUBSTEP=     1                                             
   TIME=    1.0000      LOAD CASE=   0                                         
 
    NODE      VOLT  
      40  -117.79    
      41  -117.73    
      42  -150.00    
      43   150.00    
      44  0.14009    
      45   108.43    
      46   97.015    
      47   81.162    
      48   65.530    
      49   46.815    
      50   29.273    
      51   13.217    
      52   150.00    
      53   150.00    
      54   150.00    
      55   150.00    
      56   150.00    
      57   150.00    
      58   150.00    
      59   150.00    
      60   150.00    
      61   150.00    
      62   150.00    
      63   150.00    
      64   150.00    
      65   150.00    
      66   150.00    
      67   150.00    
      68   150.00    
      69   150.00    
      70   150.00    
      71   150.00    
      72   150.00    
      73   150.00    
      74   150.00    
      75   150.00    
      76   150.00    
      77   150.00    
      78   150.00    
1

 ***** ANSYS - ENGINEERING ANALYSIS SYSTEM  RELEASE 15.0      *****
 ANSYS Academic Teaching Advanced                  
 00203145          VERSION=LINUX x64     08:23:48  AUG 20, 2014 CP=     13.869

                                                                               

 
  ***** POST1 NODAL DEGREE OF FREEDOM LISTING *****                            
 
  LOAD STEP=     1  SUBSTEP=     1                                             
   TIME=    1.0000      LOAD CASE=   0                                         
 
    NODE      VOLT  
      79   150.00    
      80   150.00    
      81   150.00    
      82   150.00    
      83   150.00    
      84  -13.008    
      85  -29.070    
      86  -46.679    
      87  -65.431    
      88  -81.090    
      89  -97.039    
      90  -108.47    
      91   128.86    
      92   107.75    
      93   78.698    
      94   49.770    
      95  0.30068E-01
      96  -49.736    
      97  -78.664    
      98  -107.73    
      99  -128.85    
     100  -128.85    
     101  -107.72    
     102  -78.659    
     103  -49.727    
     104  0.37768E-01
     105   49.779    
     106   78.703    
     107   107.75    
     108   128.86    
     109   150.00    
     110   150.00    
     111   150.00    
     112   150.00    
     113   150.00    
     114   150.00    
     115   150.00    
     116   150.00    
     117   150.00    
1

 ***** ANSYS - ENGINEERING ANALYSIS SYSTEM  RELEASE 15.0      *****
 ANSYS Academic Teaching Advanced                  
 00203145          VERSION=LINUX x64     08:23:48  AUG 20, 2014 CP=     13.871

                                                                               

 
  ***** POST1 NODAL DEGREE OF FREEDOM LISTING *****                            
 
  LOAD STEP=     1  SUBSTEP=     1                                             
   TIME=    1.0000      LOAD CASE=   0                                         
 
    NODE      VOLT  
     118   150.00    
     119   150.00    
     120   150.00    
     121   150.00    
     122   150.00    
     123   150.00    
     124   150.00    
     125   150.00    
     126   150.00    
     127   150.00    
     128   150.00    
     129   150.00    
     130   150.00    
     131   150.00    
     132  -150.00    
     133  -150.00    
     134  -150.00    
     135  -150.00    
     136  -150.00    
     137  -150.00    
     138  -150.00    
     139  -150.00    
     140  -150.00    
     141  -150.00    
     142  -150.00    
     143  -150.00    
     144  -150.00    
     145  -150.00    
     146  -150.00    
     147  -150.00    
     148  -150.00    
     149  -150.00    
     150  -150.00    
     151  -150.00    
     152  -150.00    
     153  -150.00    
     154  -150.00    
     155  -150.00    
     156  -150.00    
1

 ***** ANSYS - ENGINEERING ANALYSIS SYSTEM  RELEASE 15.0      *****
 ANSYS Academic Teaching Advanced                  
 00203145          VERSION=LINUX x64     08:23:48  AUG 20, 2014 CP=     13.873

                                                                               

 
  ***** POST1 NODAL DEGREE OF FREEDOM LISTING *****                            
 
  LOAD STEP=     1  SUBSTEP=     1                                             
   TIME=    1.0000      LOAD CASE=   0                                         
 
    NODE      VOLT  
     157  -150.00    
     158  -150.00    
     159  -150.00    
     160  -150.00    
     161  -150.00    
     162  -150.00    
     163  -150.00    
     164   150.00    
     165   150.00    
     166   150.00    
     167   150.00    
     168   150.00    
     169   150.00    
     170   150.00    
     171   150.00    
     172   150.00    
     173  -149.17    
     174  -148.38    
     175  -147.38    
     176  -146.53    
     177  -145.60    
     178  -145.01    
     179  -144.65    
     180  -144.69    
     181  -144.94    
     182  -145.43    
     183  -146.42    
     184  -147.47    
     185  -149.03    
     186  -150.61    
     187  -152.83    
     188  -155.06    
     189  -157.51    
     190  -159.97    
     191  -162.43    
     192  -164.90    
     193  -167.36    
     194  -169.83    
     195  -172.91    
1

 ***** ANSYS - ENGINEERING ANALYSIS SYSTEM  RELEASE 15.0      *****
 ANSYS Academic Teaching Advanced                  
 00203145          VERSION=LINUX x64     08:23:48  AUG 20, 2014 CP=     13.875

                                                                               

 
  ***** POST1 NODAL DEGREE OF FREEDOM LISTING *****                            
 
  LOAD STEP=     1  SUBSTEP=     1                                             
   TIME=    1.0000      LOAD CASE=   0                                         
 
    NODE      VOLT  
     196  -175.98    
     197  -178.45    
     198  -180.91    
     199  -183.38    
     200  -185.85    
     201  -188.31    
     202  -190.78    
     203  -193.24    
     204  -195.71    
     205  -197.85    
     206  -150.00    
     207  -150.00    
     208  -150.00    
     209  -150.00    
     210  -150.00    
     211  -150.00    
     212  -150.00    
     213  -150.00    
     214  -150.00    
     215  -150.00    
     216  -150.00    
     217  -150.00    
     218  -150.00    
     219  -150.00    
     220  -150.00    
     221  -150.00    
     222  -150.00    
     223  -150.00    
     224  -150.00    
     225  -150.00    
     226  -150.00    
     227  -150.00    
     228  -150.00    
     229  -149.18    
     230  -148.39    
     231  -147.41    
     232  -146.57    
     233  -145.64    
     234  -144.99    
1

 ***** ANSYS - ENGINEERING ANALYSIS SYSTEM  RELEASE 15.0      *****
 ANSYS Academic Teaching Advanced                  
 00203145          VERSION=LINUX x64     08:23:48  AUG 20, 2014 CP=     13.877

                                                                               

 
  ***** POST1 NODAL DEGREE OF FREEDOM LISTING *****                            
 
  LOAD STEP=     1  SUBSTEP=     1                                             
   TIME=    1.0000      LOAD CASE=   0                                         
 
    NODE      VOLT  
     235  -144.64    
     236  -144.65    
     237  -144.96    
     238  -145.49    
     239  -146.47    
     240  -147.49    
     241  -149.05    
     242  -150.62    
     243  -152.84    
     244  -155.06    
     245  -157.51    
     246  -159.97    
     247  -162.43    
     248  -164.90    
     249  -167.36    
     250  -169.83    
     251  -172.91    
     252  -175.98    
     253  -178.45    
     254  -180.91    
     255  -183.38    
     256  -185.85    
     257  -188.31    
     258  -190.78    
     259  -193.24    
     260  -195.71    
     261  -197.85    
     262  -150.00    
     263  -150.00    
     264  -150.00    
     265  -150.00    
     266  -150.00    
     267  -150.00    
     268  -150.00    
     269  -150.00    
     270  -150.00    
     271   149.75    
     272   149.54    
     273   149.33    
1

 ***** ANSYS - ENGINEERING ANALYSIS SYSTEM  RELEASE 15.0      *****
 ANSYS Academic Teaching Advanced                  
 00203145          VERSION=LINUX x64     08:23:48  AUG 20, 2014 CP=     13.879

                                                                               

 
  ***** POST1 NODAL DEGREE OF FREEDOM LISTING *****                            
 
  LOAD STEP=     1  SUBSTEP=     1                                             
   TIME=    1.0000      LOAD CASE=   0                                         
 
    NODE      VOLT  
     274   149.28    
     275   149.46    
     276   149.94    
     277   151.05    
     278   152.53    
     279   154.90    
     280   157.49    
     281   161.30    
     282   165.20    
     283   170.77    
     284   176.34    
     285   184.15    
     286   191.97    
     287   200.60    
     288   209.23    
     289   217.90    
     290   226.57    
     291   235.24    
     292   243.91    
     293   254.73    
     294   265.55    
     295   274.22    
     296   282.89    
     297   291.56    
     298   300.23    
     299   308.90    
     300   317.57    
     301   326.24    
     302   334.91    
     303   342.45    
     304   350.00    
     305   350.00    
     306   350.00    
     307   350.00    
     308   350.00    
     309   350.00    
     310  -200.00    
     311  -200.00    
     312  -200.00    
1

 ***** ANSYS - ENGINEERING ANALYSIS SYSTEM  RELEASE 15.0      *****
 ANSYS Academic Teaching Advanced                  
 00203145          VERSION=LINUX x64     08:23:48  AUG 20, 2014 CP=     13.881

                                                                               

 
  ***** POST1 NODAL DEGREE OF FREEDOM LISTING *****                            
 
  LOAD STEP=     1  SUBSTEP=     1                                             
   TIME=    1.0000      LOAD CASE=   0                                         
 
    NODE      VOLT  
     313  -200.00    
     314  -200.00    
     315  -200.00    
     316  -197.85    
     317  -195.71    
     318  -193.91    
     319  -192.12    
     320  -190.33    
     321  -188.53    
     322  -186.07    
     323  -183.60    
     324  -181.14    
     325  -178.67    
     326  -176.21    
     327  -173.74    
     328  -171.27    
     329  -168.81    
     330  -166.34    
     331  -163.88    
     332  -161.42    
     333  -158.96    
     334  -156.59    
     335  -154.21    
     336  -152.15    
     337  -150.08    
     338  -148.47    
     339  -146.79    
     340  -145.29    
     341  -143.56    
     342  -141.49    
     343  -137.95    
     344  -132.97    
     345  -124.80    
     346  -113.23    
     347  -94.972    
     348  -72.078    
     349  -43.802    
     350  -14.199    
     351   16.181    
1

 ***** ANSYS - ENGINEERING ANALYSIS SYSTEM  RELEASE 15.0      *****
 ANSYS Academic Teaching Advanced                  
 00203145          VERSION=LINUX x64     08:23:48  AUG 20, 2014 CP=     13.883

                                                                               

 
  ***** POST1 NODAL DEGREE OF FREEDOM LISTING *****                            
 
  LOAD STEP=     1  SUBSTEP=     1                                             
   TIME=    1.0000      LOAD CASE=   0                                         
 
    NODE      VOLT  
     352   49.892    
     353   79.882    
     354   105.79    
     355   123.18    
     356   137.30    
     357   145.77    
     358   154.60    
     359   161.36    
     360   170.16    
     361   178.85    
     362   187.52    
     363   196.19    
     364   204.86    
     365   213.53    
     366   222.20    
     367   230.87    
     368   239.54    
     369   248.21    
     370   256.88    
     371   265.55    
     372   274.22    
     373   282.89    
     374   291.56    
     375   300.23    
     376   308.90    
     377   317.57    
     378   326.24    
     379   334.91    
     380   342.45    
     381   149.76    
     382   149.56    
     383   149.37    
     384   149.32    
     385   149.49    
     386   149.95    
     387   151.06    
     388   152.56    
     389   154.90    
     390   157.51    
1

 ***** ANSYS - ENGINEERING ANALYSIS SYSTEM  RELEASE 15.0      *****
 ANSYS Academic Teaching Advanced                  
 00203145          VERSION=LINUX x64     08:23:48  AUG 20, 2014 CP=     13.885

                                                                               

 
  ***** POST1 NODAL DEGREE OF FREEDOM LISTING *****                            
 
  LOAD STEP=     1  SUBSTEP=     1                                             
   TIME=    1.0000      LOAD CASE=   0                                         
 
    NODE      VOLT  
     391   161.32    
     392   165.20    
     393   170.76    
     394   176.34    
     395   184.15    
     396   191.97    
     397   200.60    
     398   209.23    
     399   217.90    
     400   226.57    
     401   235.24    
     402   243.91    
     403   254.73    
     404   265.55    
     405   274.22    
     406   282.89    
     407   291.56    
     408   300.23    
     409   308.90    
     410   317.57    
     411   326.24    
     412   334.91    
     413   342.45    
     414   342.45    
     415   334.91    
     416   328.64    
     417   322.36    
     418   316.09    
     419   309.81    
     420   301.14    
     421   292.47    
     422   283.80    
     423   275.13    
     424   266.46    
     425   257.79    
     426   249.12    
     427   240.46    
     428   231.79    
     429   223.12    
1

 ***** ANSYS - ENGINEERING ANALYSIS SYSTEM  RELEASE 15.0      *****
 ANSYS Academic Teaching Advanced                  
 00203145          VERSION=LINUX x64     08:23:48  AUG 20, 2014 CP=     13.887

                                                                               

 
  ***** POST1 NODAL DEGREE OF FREEDOM LISTING *****                            
 
  LOAD STEP=     1  SUBSTEP=     1                                             
   TIME=    1.0000      LOAD CASE=   0                                         
 
    NODE      VOLT  
     430   214.48    
     431   205.83    
     432   197.50    
     433   189.16    
     434   181.92    
     435   174.67    
     436   169.17    
     437   163.63    
     438   159.35    
     439   154.78    
     440   150.67    
     441   145.25    
     442   138.06    
     443   127.91    
     444   116.17    
     445   97.509    
     446   74.118    
     447   45.537    
     448   15.816    
     449  -14.653    
     450  -48.272    
     451  -77.944    
     452  -103.20    
     453  -119.72    
     454  -132.47    
     455  -138.66    
     456  -143.74    
     457  -146.23    
     458  -148.83    
     459  -151.33    
     460  -153.79    
     461  -156.26    
     462  -158.72    
     463  -161.19    
     464  -163.66    
     465  -166.12    
     466  -168.59    
     467  -171.05    
     468  -173.52    
1

 ***** ANSYS - ENGINEERING ANALYSIS SYSTEM  RELEASE 15.0      *****
 ANSYS Academic Teaching Advanced                  
 00203145          VERSION=LINUX x64     08:23:48  AUG 20, 2014 CP=     13.890

                                                                               

 
  ***** POST1 NODAL DEGREE OF FREEDOM LISTING *****                            
 
  LOAD STEP=     1  SUBSTEP=     1                                             
   TIME=    1.0000      LOAD CASE=   0                                         
 
    NODE      VOLT  
     469  -175.98    
     470  -178.45    
     471  -180.91    
     472  -183.38    
     473  -185.85    
     474  -188.31    
     475  -190.78    
     476  -193.24    
     477  -195.71    
     478  -197.85    
     479   118.07    
     480   117.36    
     481   118.10    
     482   117.86    
     483   117.71    
     484   118.11    
     485   118.13    
     486   118.23    
     487   117.98    
     488   117.54    
     489   117.35    
     490   117.69    
     491   118.09    
     492   118.40    
     493   118.11    
     494   118.04    
     495   117.90    
     496  0.88661E-01
     497  0.71108E-01
     498  0.64082E-01
     499  0.80010E-01
     500  0.81897E-01
     501  0.11641    
     502  0.12018    
     503  0.19183    
     504  0.10008    
     505  0.59742E-01
     506  0.62564E-01
     507   108.41    
1

 ***** ANSYS - ENGINEERING ANALYSIS SYSTEM  RELEASE 15.0      *****
 ANSYS Academic Teaching Advanced                  
 00203145          VERSION=LINUX x64     08:23:48  AUG 20, 2014 CP=     13.891

                                                                               

 
  ***** POST1 NODAL DEGREE OF FREEDOM LISTING *****                            
 
  LOAD STEP=     1  SUBSTEP=     1                                             
   TIME=    1.0000      LOAD CASE=   0                                         
 
    NODE      VOLT  
     508   97.037    
     509   81.291    
     510   65.727    
     511   47.518    
     512   30.340    
     513   13.727    
     514   118.18    
     515   118.04    
     516   118.22    
     517   118.76    
     518   118.94    
     519   118.91    
     520   118.87    
     521   118.96    
     522   118.53    
     523   118.10    
     524   117.67    
     525   117.77    
     526   117.97    
     527   118.46    
     528   117.84    
     529   117.83    
     530   118.21    
     531  -117.63    
     532  -117.52    
     533  -117.18    
     534  -117.52    
     535  -117.39    
     536  -117.84    
     537  -117.94    
     538  -118.09    
     539  -117.78    
     540  -117.84    
     541  -117.47    
     542  -117.32    
     543  -116.98    
     544  -117.09    
     545  -117.04    
     546  -117.81    
1

 ***** ANSYS - ENGINEERING ANALYSIS SYSTEM  RELEASE 15.0      *****
 ANSYS Academic Teaching Advanced                  
 00203145          VERSION=LINUX x64     08:23:48  AUG 20, 2014 CP=     13.894

                                                                               

 
  ***** POST1 NODAL DEGREE OF FREEDOM LISTING *****                            
 
  LOAD STEP=     1  SUBSTEP=     1                                             
   TIME=    1.0000      LOAD CASE=   0                                         
 
    NODE      VOLT  
     547  -117.83    
     548  -150.00    
     549  -150.00    
     550  -150.00    
     551  -150.00    
     552  -150.00    
     553  -150.00    
     554  -150.00    
     555  -150.00    
     556  -150.00    
     557  -150.00    
     558  -150.00    
     559  -150.00    
     560  -150.00    
     561  -150.00    
     562  -150.00    
     563  -150.00    
     564  -150.00    
     565  -150.00    
     566  -150.00    
     567  -150.00    
     568  -150.00    
     569  -150.00    
     570  -150.00    
     571  -150.00    
     572  -150.00    
     573  -150.00    
     574  -150.00    
     575  -150.00    
     576  -150.00    
     577  -150.00    
     578  -150.00    
     579  -150.00    
     580  -150.00    
     581  -150.00    
     582  -150.00    
     583  -150.00    
     584  -150.00    
     585  -150.00    
1

 ***** ANSYS - ENGINEERING ANALYSIS SYSTEM  RELEASE 15.0      *****
 ANSYS Academic Teaching Advanced                  
 00203145          VERSION=LINUX x64     08:23:48  AUG 20, 2014 CP=     13.896

                                                                               

 
  ***** POST1 NODAL DEGREE OF FREEDOM LISTING *****                            
 
  LOAD STEP=     1  SUBSTEP=     1                                             
   TIME=    1.0000      LOAD CASE=   0                                         
 
    NODE      VOLT  
     586   150.00    
     587   150.00    
     588   150.00    
     589   150.00    
     590   150.00    
     591   150.00    
     592   150.00    
     593   150.00    
     594   150.00    
     595   150.00    
     596   150.00    
     597   150.00    
     598   150.00    
     599   150.00    
     600   150.00    
     601   150.00    
     602   150.00    
     603   150.00    
     604   150.00    
     605   150.00    
     606   150.00    
     607   150.00    
     608   150.00    
     609   150.00    
     610   150.00    
     611   150.00    
     612   150.00    
     613   150.00    
     614   150.00    
     615   150.00    
     616   150.00    
     617   150.00    
     618   150.00    
     619   150.00    
     620   150.00    
     621   150.00    
     622   150.00    
     623   150.00    
     624  -13.401    
1

 ***** ANSYS - ENGINEERING ANALYSIS SYSTEM  RELEASE 15.0      *****
 ANSYS Academic Teaching Advanced                  
 00203145          VERSION=LINUX x64     08:23:48  AUG 20, 2014 CP=     13.898

                                                                               

 
  ***** POST1 NODAL DEGREE OF FREEDOM LISTING *****                            
 
  LOAD STEP=     1  SUBSTEP=     1                                             
   TIME=    1.0000      LOAD CASE=   0                                         
 
    NODE      VOLT  
     625  -30.015    
     626  -47.208    
     627  -65.420    
     628  -80.903    
     629  -96.606    
     630  -107.98    
     631  0.19945    
     632  0.28150    
     633  0.23863    
     634  0.18653    
     635  0.19463    
     636  0.22957    
     637  0.21111    
     638  0.18339    
     639  0.18251    
     640  0.10841    
     641  0.16784    
     642   108.50    
     643   97.093    
     644   81.419    
     645   65.880    
     646   47.621    
     647   30.377    
     648   13.768    
     649   108.47    
     650   96.975    
     651   81.212    
     652   65.678    
     653   47.179    
     654   29.724    
     655   13.405    
     656  -13.110    
     657  -29.492    
     658  -46.951    
     659  -65.558    
     660  -81.083    
     661  -96.836    
     662  -108.08    
     663  -117.63    
1

 ***** ANSYS - ENGINEERING ANALYSIS SYSTEM  RELEASE 15.0      *****
 ANSYS Academic Teaching Advanced                  
 00203145          VERSION=LINUX x64     08:23:48  AUG 20, 2014 CP=     13.900

                                                                               

 
  ***** POST1 NODAL DEGREE OF FREEDOM LISTING *****                            
 
  LOAD STEP=     1  SUBSTEP=     1                                             
   TIME=    1.0000      LOAD CASE=   0                                         
 
    NODE      VOLT  
     664  -117.74    
     665  -117.96    
     666  -118.50    
     667  -117.53    
     668  -117.55    
     669  -117.78    
     670  -117.35    
     671  -117.12    
     672  -117.19    
     673  -117.92    
     674  -118.48    
     675  -118.28    
     676  -118.46    
     677  -118.42    
     678  -118.64    
     679  -118.46    
     680  -150.00    
     681  -150.00    
     682  -150.00    
     683  -150.00    
     684  -150.00    
     685  -150.00    
     686  -150.00    
     687  -150.00    
     688  -150.00    
     689  -150.00    
     690  -150.00    
     691  -150.00    
     692  -150.00    
     693  -150.00    
     694  -150.00    
     695  -150.00    
     696  -150.00    
     697  -150.00    
     698  -150.00    
     699  -150.00    
     700  -150.00    
     701  -150.00    
     702  -150.00    
1

 ***** ANSYS - ENGINEERING ANALYSIS SYSTEM  RELEASE 15.0      *****
 ANSYS Academic Teaching Advanced                  
 00203145          VERSION=LINUX x64     08:23:48  AUG 20, 2014 CP=     13.902

                                                                               

 
  ***** POST1 NODAL DEGREE OF FREEDOM LISTING *****                            
 
  LOAD STEP=     1  SUBSTEP=     1                                             
   TIME=    1.0000      LOAD CASE=   0                                         
 
    NODE      VOLT  
     703  -150.00    
     704  -150.00    
     705  -150.00    
     706  -150.00    
     707  -150.00    
     708  -150.00    
     709  -150.00    
     710  -150.00    
     711  -150.00    
     712  -150.00    
     713  -150.00    
     714  -150.00    
     715  -150.00    
     716  -150.00    
     717  -150.00    
     718   150.00    
     719   150.00    
     720   150.00    
     721   150.00    
     722   150.00    
     723   150.00    
     724   150.00    
     725   150.00    
     726   150.00    
     727   150.00    
     728   150.00    
     729   150.00    
     730   150.00    
     731   150.00    
     732   150.00    
     733   150.00    
     734   150.00    
     735   150.00    
     736   150.00    
     737   150.00    
     738   150.00    
     739   150.00    
     740   150.00    
     741   150.00    
1

 ***** ANSYS - ENGINEERING ANALYSIS SYSTEM  RELEASE 15.0      *****
 ANSYS Academic Teaching Advanced                  
 00203145          VERSION=LINUX x64     08:23:48  AUG 20, 2014 CP=     13.904

                                                                               

 
  ***** POST1 NODAL DEGREE OF FREEDOM LISTING *****                            
 
  LOAD STEP=     1  SUBSTEP=     1                                             
   TIME=    1.0000      LOAD CASE=   0                                         
 
    NODE      VOLT  
     742   150.00    
     743   150.00    
     744   150.00    
     745   150.00    
     746   150.00    
     747   150.00    
     748   150.00    
     749   150.00    
     750   150.00    
     751   150.00    
     752   150.00    
     753   150.00    
     754   150.00    
     755   150.00    
     756  -13.388    
     757  -30.049    
     758  -47.287    
     759  -65.573    
     760  -81.101    
     761  -96.784    
     762  -108.09    
     763   150.00    
     764   150.00    
     765   150.00    
     766   150.00    
     767   150.00    
     768   150.00    
     769   150.00    
     770   150.00    
     771   150.00    
     772   150.00    
     773   150.00    
     774   150.00    
     775   150.00    
     776   150.00    
     777   150.00    
     778   150.00    
     779   150.00    
     780   150.00    
1

 ***** ANSYS - ENGINEERING ANALYSIS SYSTEM  RELEASE 15.0      *****
 ANSYS Academic Teaching Advanced                  
 00203145          VERSION=LINUX x64     08:23:48  AUG 20, 2014 CP=     13.906

                                                                               

 
  ***** POST1 NODAL DEGREE OF FREEDOM LISTING *****                            
 
  LOAD STEP=     1  SUBSTEP=     1                                             
   TIME=    1.0000      LOAD CASE=   0                                         
 
    NODE      VOLT  
     781   150.00    
     782   150.00    
     783   150.00    
     784   150.00    
     785   150.00    
     786   150.00    
     787   150.00    
     788   150.00    
     789   150.00    
     790   150.00    
     791   150.00    
     792   150.00    
     793   150.00    
     794   150.00    
     795  -150.00    
     796  -150.00    
     797  -150.00    
     798  -150.00    
     799  -150.00    
     800  -150.00    
     801  -150.00    
     802  -150.00    
     803  -150.00    
     804  -150.00    
     805  -150.00    
     806  -150.00    
     807  -150.00    
     808  -150.00    
     809  -150.00    
     810  -150.00    
     811  -150.00    
     812  -150.00    
     813  -150.00    
     814  -150.00    
     815  -150.00    
     816  -150.00    
     817  -150.00    
     818  -150.00    
     819  -150.00    
1

 ***** ANSYS - ENGINEERING ANALYSIS SYSTEM  RELEASE 15.0      *****
 ANSYS Academic Teaching Advanced                  
 00203145          VERSION=LINUX x64     08:23:48  AUG 20, 2014 CP=     13.908

                                                                               

 
  ***** POST1 NODAL DEGREE OF FREEDOM LISTING *****                            
 
  LOAD STEP=     1  SUBSTEP=     1                                             
   TIME=    1.0000      LOAD CASE=   0                                         
 
    NODE      VOLT  
     820  -150.00    
     821  -150.00    
     822  -150.00    
     823  -150.00    
     824  -150.00    
     825  -150.00    
     826  -150.00    
     827  -150.00    
     828  -150.00    
     829  -150.00    
     830  -150.00    
     831  -150.00    
     832  -150.00    
     833  -150.00    
     834  -150.00    
     835  -150.00    
     836  -150.00    
     837  -150.00    
     838  -150.00    
     839  -150.00    
     840  -150.00    
     841  -150.00    
     842  -150.00    
     843  -150.00    
     844  -150.00    
     845  -150.00    
     846  -150.00    
     847  -150.00    
     848  -150.00    
     849  -150.00    
     850  -150.00    
     851  -150.00    
     852  -150.00    
     853  -150.00    
     854  -150.00    
     855  -150.00    
     856  -150.00    
     857  -150.00    
     858  -150.00    
1

 ***** ANSYS - ENGINEERING ANALYSIS SYSTEM  RELEASE 15.0      *****
 ANSYS Academic Teaching Advanced                  
 00203145          VERSION=LINUX x64     08:23:48  AUG 20, 2014 CP=     13.910

                                                                               

 
  ***** POST1 NODAL DEGREE OF FREEDOM LISTING *****                            
 
  LOAD STEP=     1  SUBSTEP=     1                                             
   TIME=    1.0000      LOAD CASE=   0                                         
 
    NODE      VOLT  
     859   150.00    
     860   150.00    
     861   150.00    
     862   150.00    
     863   150.00    
     864   150.00    
     865   150.00    
     866   150.00    
     867   150.00    
     868   150.00    
     869   150.00    
     870   150.00    
     871   150.00    
     872   150.00    
     873   150.00    
     874   150.00    
     875   150.00    
     876   150.00    
     877   150.00    
     878   150.00    
     879   150.00    
     880   150.00    
     881   150.00    
     882   150.00    
     883   150.00    
     884   150.00    
     885   150.00    
     886   150.00    
     887   150.00    
     888   150.00    
     889   150.00    
     890   150.00    
     891  -35.581    
     892  -46.126    
     893  -78.981    
     894  -106.78    
     895  -31.500    
     896  -91.921    
     897  -19.295    
1

 ***** ANSYS - ENGINEERING ANALYSIS SYSTEM  RELEASE 15.0      *****
 ANSYS Academic Teaching Advanced                  
 00203145          VERSION=LINUX x64     08:23:48  AUG 20, 2014 CP=     13.912

                                                                               

 
  ***** POST1 NODAL DEGREE OF FREEDOM LISTING *****                            
 
  LOAD STEP=     1  SUBSTEP=     1                                             
   TIME=    1.0000      LOAD CASE=   0                                         
 
    NODE      VOLT  
     898  -100.67    
     899  -112.13    
     900  -100.25    
     901  -111.34    
     902  -22.024    
     903  -23.293    
     904  -8.0891    
     905  -8.0734    
     906  -33.396    
     907  -7.8155    
     908  -23.377    
     909  -7.7821    
     910  -53.741    
     911  -59.201    
     912  -64.888    
     913  -56.221    
     914  -73.580    
     915  -51.136    
     916  -36.554    
     917  -37.189    
     918  -38.739    
     919  -39.751    
     920  -43.570    
     921  -44.309    
     922  -69.794    
     923  -69.844    
     924  -73.060    
     925  -71.398    
     926  -80.917    
     927  -77.044    
     928  -82.616    
     929  -80.745    
     930  -68.815    
     931  -35.857    
     932  -62.911    
     933  -89.322    
     934  -22.014    
     935  -23.644    
     936  -25.388    
1

 ***** ANSYS - ENGINEERING ANALYSIS SYSTEM  RELEASE 15.0      *****
 ANSYS Academic Teaching Advanced                  
 00203145          VERSION=LINUX x64     08:23:48  AUG 20, 2014 CP=     13.915

                                                                               

 
  ***** POST1 NODAL DEGREE OF FREEDOM LISTING *****                            
 
  LOAD STEP=     1  SUBSTEP=     1                                             
   TIME=    1.0000      LOAD CASE=   0                                         
 
    NODE      VOLT  
     937  -90.861    
     938  -87.564    
     939  -89.100    
     940  -94.822    
     941  -96.560    
     942  -96.165    
     943  -72.326    
     944  -37.232    
     945  -55.412    
     946  -72.775    
     947  -88.586    
     948  -9.5155    
     949  -9.5618    
     950  -10.124    
     951  -10.157    
     952  -11.229    
     953  -11.196    
     954  -11.815    
     955  -11.660    
     956  -106.89    
     957  -108.06    
     958  -104.39    
     959  -104.33    
     960  -104.19    
     961  -103.79    
     962  -105.83    
     963  -106.00    
     964  -109.30    
     965  -109.00    
     966  -107.42    
     967  -108.38    
     968  -110.16    
     969  -109.19    
     970  -57.678    
     971  -39.840    
     972  -95.537    
     973  -79.903    
     974  -94.606    
     975  -50.689    
1

 ***** ANSYS - ENGINEERING ANALYSIS SYSTEM  RELEASE 15.0      *****
 ANSYS Academic Teaching Advanced                  
 00203145          VERSION=LINUX x64     08:23:48  AUG 20, 2014 CP=     13.916

                                                                               

 
  ***** POST1 NODAL DEGREE OF FREEDOM LISTING *****                            
 
  LOAD STEP=     1  SUBSTEP=     1                                             
   TIME=    1.0000      LOAD CASE=   0                                         
 
    NODE      VOLT  
     976  -98.280    
     977  -94.706    
     978  -98.555    
     979  -91.198    
     980  -87.894    
     981  -87.941    
     982  -26.701    
     983  -24.939    
     984  -23.026    
     985  -21.703    
     986  -80.481    
     987  -45.994    
     988  -67.066    
     989  -63.625    
     990  -55.715    
     991  -52.573    
     992  -17.411    
     993  -18.024    
     994  -103.40    
     995   128.94    
     996  -128.75    
     997   63.417    
     998  -77.382    
     999   74.154    
    1000  -81.488    
    1001   1.3889    
    1002  -13.723    
    1003  -13.859    
    1004   78.689    
    1005   75.451    
    1006  -83.170    
    1007  -115.86    
    1008   116.08    
    1009  -80.201    
    1010  -112.34    
    1011  -131.92    
    1012  -110.82    
    1013  -131.96    
    1014   109.88    
1

 ***** ANSYS - ENGINEERING ANALYSIS SYSTEM  RELEASE 15.0      *****
 ANSYS Academic Teaching Advanced                  
 00203145          VERSION=LINUX x64     08:23:48  AUG 20, 2014 CP=     13.919

                                                                               

 
  ***** POST1 NODAL DEGREE OF FREEDOM LISTING *****                            
 
  LOAD STEP=     1  SUBSTEP=     1                                             
   TIME=    1.0000      LOAD CASE=   0                                         
 
    NODE      VOLT  
    1015   111.08    
    1016   132.17    
    1017   132.20    
    1018  -3.1630    
    1019  -4.7300    
    1020  -51.257    
    1021  -52.566    
    1022  -34.515    
    1023  -81.008    
    1024   46.544    
    1025   33.960    
    1026   33.712    
    1027   63.975    
    1028   11.346    
    1029   70.684    
    1030  -57.702    
    1031  -108.01    
    1032   105.27    
    1033   36.565    
    1034   54.962    
    1035   9.0015    
    1036  -7.6687    
    1037  -43.120    
    1038  -25.450    
    1039   83.782    
    1040   101.07    
    1041  -100.82    
    1042  -83.575    
    1043  -130.48    
    1044  -130.32    
    1045  -130.04    
    1046  -127.40    
    1047   127.73    
    1048   127.21    
    1049   127.56    
    1050   127.54    
    1051  -125.94    
    1052  -122.94    
    1053   123.09    
1

 ***** ANSYS - ENGINEERING ANALYSIS SYSTEM  RELEASE 15.0      *****
 ANSYS Academic Teaching Advanced                  
 00203145          VERSION=LINUX x64     08:23:48  AUG 20, 2014 CP=     13.921

                                                                               

 
  ***** POST1 NODAL DEGREE OF FREEDOM LISTING *****                            
 
  LOAD STEP=     1  SUBSTEP=     1                                             
   TIME=    1.0000      LOAD CASE=   0                                         
 
    NODE      VOLT  
    1054   126.07    
    1055   102.31    
    1056  -102.06    
    1057   105.17    
    1058  -110.61    
    1059  -18.266    
    1060   41.731    
    1061   23.987    
    1062   43.256    
    1063  -51.842    
    1064  -52.647    
    1065   114.37    
    1066  -113.87    
    1067   34.703    
    1068   75.888    
    1069   107.10    
    1070   108.86    
    1071   67.542    
    1072   27.734    
    1073   33.323    
    1074   17.240    
    1075   7.1968    
    1076   22.200    
    1077   7.2183    
    1078   18.898    
    1079   23.759    
    1080   8.1861    
    1081   8.1080    
    1082   63.961    
    1083   50.414    
    1084   54.108    
    1085   55.201    
    1086   48.801    
    1087   68.294    
    1088   67.990    
    1089   68.202    
    1090   69.087    
    1091   72.425    
    1092   77.114    
1

 ***** ANSYS - ENGINEERING ANALYSIS SYSTEM  RELEASE 15.0      *****
 ANSYS Academic Teaching Advanced                  
 00203145          VERSION=LINUX x64     08:23:48  AUG 20, 2014 CP=     13.923

                                                                               

 
  ***** POST1 NODAL DEGREE OF FREEDOM LISTING *****                            
 
  LOAD STEP=     1  SUBSTEP=     1                                             
   TIME=    1.0000      LOAD CASE=   0                                         
 
    NODE      VOLT  
    1093   82.071    
    1094   84.255    
    1095   35.329    
    1096   35.945    
    1097   35.678    
    1098   37.809    
    1099   39.313    
    1100   34.961    
    1101   49.845    
    1102   67.998    
    1103   29.421    
    1104   90.537    
    1105   86.291    
    1106   86.536    
    1107   91.835    
    1108   95.028    
    1109   95.908    
    1110   20.632    
    1111   21.294    
    1112   20.208    
    1113   72.029    
    1114   97.574    
    1115   81.724    
    1116   52.493    
    1117   34.543    
    1118   108.48    
    1119   106.98    
    1120   103.65    
    1121   103.76    
    1122   103.54    
    1123   104.02    
    1124   104.10    
    1125   104.50    
    1126   108.41    
    1127   107.67    
    1128   107.18    
    1129   107.11    
    1130   109.42    
    1131   109.41    
1

 ***** ANSYS - ENGINEERING ANALYSIS SYSTEM  RELEASE 15.0      *****
 ANSYS Academic Teaching Advanced                  
 00203145          VERSION=LINUX x64     08:23:48  AUG 20, 2014 CP=     13.925

                                                                               

 
  ***** POST1 NODAL DEGREE OF FREEDOM LISTING *****                            
 
  LOAD STEP=     1  SUBSTEP=     1                                             
   TIME=    1.0000      LOAD CASE=   0                                         
 
    NODE      VOLT  
    1132   9.3266    
    1133   9.1584    
    1134   9.5508    
    1135   9.5103    
    1136   10.145    
    1137   10.138    
    1138   8.5818    
    1139   8.7091    
    1140   80.115    
    1141   95.840    
    1142   39.723    
    1143   57.520    
    1144   50.125    
    1145   95.109    
    1146   19.182    
    1147   21.934    
    1148   21.372    
    1149   20.577    
    1150   98.495    
    1151   94.057    
    1152   96.371    
    1153   87.770    
    1154   86.286    
    1155   87.056    
    1156   40.563    
    1157   50.547    
    1158   58.299    
    1159   51.181    
    1160   70.409    
    1161   17.767    
    1162   15.802    
    1163   128.97    
    1164  -129.42    
    1165  -86.278    
    1166  -42.945    
    1167   25.064    
    1168  -87.323    
    1169  -82.927    
    1170  -120.00    
1

 ***** ANSYS - ENGINEERING ANALYSIS SYSTEM  RELEASE 15.0      *****
 ANSYS Academic Teaching Advanced                  
 00203145          VERSION=LINUX x64     08:23:48  AUG 20, 2014 CP=     13.927

                                                                               

 
  ***** POST1 NODAL DEGREE OF FREEDOM LISTING *****                            
 
  LOAD STEP=     1  SUBSTEP=     1                                             
   TIME=    1.0000      LOAD CASE=   0                                         
 
    NODE      VOLT  
    1171   119.65    
    1172   112.80    
    1173   122.56    
    1174  -111.61    
    1175   111.38    
    1176   119.61    
    1177  -33.067    
    1178  -91.312    
    1179  -87.268    
    1180  -110.76    
    1181  -111.77    
    1182  -132.90    
    1183  -132.90    
    1184  -6.6512    
    1185  -27.364    
    1186  -58.303    
    1187  -46.127    
    1188 -0.16269    
    1189   2.1796    
    1190  -18.827    
    1191   1.4627    
    1192  -46.545    
    1193  -41.698    
    1194   43.787    
    1195   49.802    
    1196   47.553    
    1197   40.772    
    1198   39.897    
    1199   46.752    
    1200   41.772    
    1201   39.947    
    1202   38.144    
    1203  -65.466    
    1204  -26.118    
    1205   2.5023    
    1206  -12.360    
    1207  -47.155    
    1208  -73.451    
    1209  -27.923    
1

 ***** ANSYS - ENGINEERING ANALYSIS SYSTEM  RELEASE 15.0      *****
 ANSYS Academic Teaching Advanced                  
 00203145          VERSION=LINUX x64     08:23:48  AUG 20, 2014 CP=     13.929

                                                                               

 
  ***** POST1 NODAL DEGREE OF FREEDOM LISTING *****                            
 
  LOAD STEP=     1  SUBSTEP=     1                                             
   TIME=    1.0000      LOAD CASE=   0                                         
 
    NODE      VOLT  
    1210  -34.118    
    1211  -83.838    
    1212  -62.775    
    1213  -42.161    
    1214  -44.963    
    1215  -41.949    
    1216   30.911    
    1217   50.600    
    1218   45.408    
    1219  -89.470    
    1220   82.477    
    1221   77.468    
    1222   87.347    
    1223   88.603    
    1224   88.380    
    1225  -100.73    
    1226  -110.24    
    1227  -87.505    
    1228   36.089    
    1229   18.208    
    1230   1.3449    
    1231  -15.355    
    1232   69.515    
    1233   98.521    
    1234  -89.135    
    1235  -93.004    
    1236  -113.21    
    1237  -111.40    
    1238   96.449    
    1239   79.156    
    1240  -78.969    
    1241  -96.247    
    1242  -127.83    
    1243  -127.85    
    1244  -127.84    
    1245  -133.54    
    1246  -133.53    
    1247  -129.66    
    1248  -129.65    
1

 ***** ANSYS - ENGINEERING ANALYSIS SYSTEM  RELEASE 15.0      *****
 ANSYS Academic Teaching Advanced                  
 00203145          VERSION=LINUX x64     08:23:48  AUG 20, 2014 CP=     13.932

                                                                               

 
  ***** POST1 NODAL DEGREE OF FREEDOM LISTING *****                            
 
  LOAD STEP=     1  SUBSTEP=     1                                             
   TIME=    1.0000      LOAD CASE=   0                                         
 
    NODE      VOLT  
    1249  -130.57    
    1250  -130.57    
    1251  -120.15    
    1252  -120.07    
    1253  -120.12    
    1254  -116.66    
    1255  -117.13    
    1256  -122.21    
    1257   119.62    
    1258   119.64    
    1259   112.77    
    1260   112.79    
    1261   114.61    
    1262   114.62    
    1263   122.69    
    1264   122.67    
    1265   122.63    
    1266   115.66    
    1267   115.14    
    1268   122.57    
    1269  -117.17    
    1270  -120.36    
    1271   120.57    
    1272   117.12    
    1273   92.481    
    1274  -91.674    
    1275   81.464    
    1276   95.357    
    1277   79.281    
    1278   75.632    
    1279   89.325    
    1280  -84.362    
    1281  -90.260    
    1282  -111.14    
    1283  -109.32    
    1284  -117.09    
    1285  -105.71    
    1286  -68.971    
    1287   2.9833    
1

 ***** ANSYS - ENGINEERING ANALYSIS SYSTEM  RELEASE 15.0      *****
 ANSYS Academic Teaching Advanced                  
 00203145          VERSION=LINUX x64     08:23:48  AUG 20, 2014 CP=     13.933

                                                                               

 
  ***** POST1 NODAL DEGREE OF FREEDOM LISTING *****                            
 
  LOAD STEP=     1  SUBSTEP=     1                                             
   TIME=    1.0000      LOAD CASE=   0                                         
 
    NODE      VOLT  
    1288   12.044    
    1289  0.48677E-01
    1290  -56.571    
    1291  0.68948    
    1292  -25.387    
    1293   4.3138    
    1294 -0.36214    
    1295  -66.889    
    1296  -115.82    
    1297  -150.00    
    1298  -150.00    
    1299  -150.00    
    1300  -150.00    
    1301  -150.00    
    1302  -150.00    
    1303  -150.00    
    1304  -150.00    
    1305  -150.00    
    1306  -150.00    
    1307  -150.00    
    1308  -150.00    
    1309  -150.00    
    1310  -150.00    
    1311  -150.00    
    1312  -150.00    
    1313  -150.00    
    1314  -150.00    
    1315  -150.00    
    1316  -150.00    
    1317  -150.00    
    1318  -150.00    
    1319  -150.00    
    1320  -150.00    
    1321  -150.00    
    1322  -150.00    
    1323  -150.00    
    1324  -150.00    
    1325  -150.00    
    1326  -150.00    
1

 ***** ANSYS - ENGINEERING ANALYSIS SYSTEM  RELEASE 15.0      *****
 ANSYS Academic Teaching Advanced                  
 00203145          VERSION=LINUX x64     08:23:48  AUG 20, 2014 CP=     13.934

                                                                               

 
  ***** POST1 NODAL DEGREE OF FREEDOM LISTING *****                            
 
  LOAD STEP=     1  SUBSTEP=     1                                             
   TIME=    1.0000      LOAD CASE=   0                                         
 
    NODE      VOLT  
    1327  -150.00    
    1328  -150.00    
    1329  -150.00    
    1330  -150.00    
    1331  -150.00    
    1332  -150.00    
    1333  -150.00    
    1334  -150.00    
    1335  -150.00    
    1336  -150.00    
    1337  -150.00    
    1338  -150.00    
    1339  -150.00    
    1340  -150.00    
    1341  -150.00    
    1342  -150.00    
    1343  -150.00    
    1344  -150.00    
    1345  -150.00    
    1346  -150.00    
    1347  -150.00    
    1348  -150.00    
    1349  -150.00    
    1350  -150.00    
    1351  -150.00    
    1352  -150.00    
    1353  -150.00    
    1354  -150.00    
    1355  -150.00    
    1356  -150.00    
    1357  -150.00    
    1358  -150.00    
    1359  -150.00    
    1360  -150.00    
    1361  -150.00    
    1362  -150.00    
    1363  -150.00    
    1364  -150.00    
    1365  -150.00    
1

 ***** ANSYS - ENGINEERING ANALYSIS SYSTEM  RELEASE 15.0      *****
 ANSYS Academic Teaching Advanced                  
 00203145          VERSION=LINUX x64     08:23:48  AUG 20, 2014 CP=     13.935

                                                                               

 
  ***** POST1 NODAL DEGREE OF FREEDOM LISTING *****                            
 
  LOAD STEP=     1  SUBSTEP=     1                                             
   TIME=    1.0000      LOAD CASE=   0                                         
 
    NODE      VOLT  
    1366  -150.00    
    1367  -150.00    
    1368  -150.00    
    1369  -150.00    
    1370  -150.00    
    1371  -150.00    
    1372  -150.00    
    1373  -150.00    
    1374  -150.00    
    1375  -150.00    
    1376  -150.00    
    1377  -150.00    
    1378  -150.00    
    1379  -150.00    
    1380  -150.00    
    1381  -150.00    
    1382  -150.00    
    1383  -150.00    
    1384  -150.00    
    1385  -150.00    
    1386  -150.00    
    1387  -150.00    
    1388  -150.00    
    1389  -150.00    
    1390  -150.00    
    1391  -150.00    
    1392  -150.00    
    1393  -150.00    
    1394  -150.00    
    1395  -150.00    
    1396  -150.00    
    1397  -150.00    
    1398  -150.00    
    1399  -150.00    
    1400  -150.00    
    1401  -150.00    
    1402  -150.00    
    1403  -150.00    
    1404  -150.00    
1

 ***** ANSYS - ENGINEERING ANALYSIS SYSTEM  RELEASE 15.0      *****
 ANSYS Academic Teaching Advanced                  
 00203145          VERSION=LINUX x64     08:23:48  AUG 20, 2014 CP=     13.936

                                                                               

 
  ***** POST1 NODAL DEGREE OF FREEDOM LISTING *****                            
 
  LOAD STEP=     1  SUBSTEP=     1                                             
   TIME=    1.0000      LOAD CASE=   0                                         
 
    NODE      VOLT  
    1405  -150.00    
    1406  -150.00    
    1407  -150.00    
    1408  -150.00    
    1409  -150.00    
    1410  -150.00    
    1411  -150.00    
    1412  -150.00    
    1413  -150.00    
    1414  -150.00    
    1415  -150.00    
    1416  -150.00    
    1417  -150.00    
    1418  -150.00    
    1419  -150.00    
    1420  -150.00    
    1421  -150.00    
    1422  -150.00    
    1423  -150.00    
    1424  -150.00    
    1425  -150.00    
    1426  -150.00    
    1427  -150.00    
    1428  -150.00    
    1429  -150.00    
    1430  -150.00    
    1431  -150.00    
    1432  -150.00    
    1433  -150.00    
    1434  -150.00    
    1435  -150.00    
    1436  -150.00    
    1437  -150.00    
    1438  -150.00    
    1439  -150.00    
    1440  -150.00    
    1441  -150.00    
    1442  -150.00    
    1443  -150.00    
1

 ***** ANSYS - ENGINEERING ANALYSIS SYSTEM  RELEASE 15.0      *****
 ANSYS Academic Teaching Advanced                  
 00203145          VERSION=LINUX x64     08:23:48  AUG 20, 2014 CP=     13.937

                                                                               

 
  ***** POST1 NODAL DEGREE OF FREEDOM LISTING *****                            
 
  LOAD STEP=     1  SUBSTEP=     1                                             
   TIME=    1.0000      LOAD CASE=   0                                         
 
    NODE      VOLT  
    1444  -150.00    
    1445  -150.00    
    1446  -150.00    
    1447  -150.00    
    1448  -150.00    
    1449  -150.00    
    1450  -150.00    
    1451  -150.00    
    1452  -150.00    
    1453  -150.00    
    1454  -150.00    
    1455  -150.00    
    1456  -150.00    
    1457  -150.00    
    1458  -150.00    
    1459  -150.00    
    1460  -150.00    
    1461  -150.00    
    1462  -150.00    
    1463  -150.00    
    1464  -150.00    
    1465  -150.00    
    1466  -150.00    
    1467  -150.00    
    1468  -150.00    
    1469  -150.00    
    1470  -150.00    
    1471  -150.00    
    1472  -150.00    
    1473  -150.00    
    1474  -150.00    
    1475  -150.00    
    1476  -150.00    
    1477  -150.00    
    1478  -150.00    
    1479  -150.00    
    1480  -150.00    
    1481  -150.00    
    1482  -150.00    
1

 ***** ANSYS - ENGINEERING ANALYSIS SYSTEM  RELEASE 15.0      *****
 ANSYS Academic Teaching Advanced                  
 00203145          VERSION=LINUX x64     08:23:48  AUG 20, 2014 CP=     13.939

                                                                               

 
  ***** POST1 NODAL DEGREE OF FREEDOM LISTING *****                            
 
  LOAD STEP=     1  SUBSTEP=     1                                             
   TIME=    1.0000      LOAD CASE=   0                                         
 
    NODE      VOLT  
    1483  -150.00    
    1484  -150.00    
    1485  -150.00    
    1486  -150.00    
    1487  -150.00    
    1488  -150.00    
    1489  -150.00    
    1490  -150.00    
    1491  -150.00    
    1492  -150.00    
    1493  -150.00    
    1494  -150.00    
    1495  -150.00    
    1496  -150.00    
    1497  -150.00    
    1498  -150.00    
    1499  -150.00    
    1500  -150.00    
    1501  -150.00    
    1502  -150.00    
    1503  -150.00    
    1504  -150.00    
    1505  -150.00    
    1506  -150.00    
    1507  -150.00    
    1508  -150.00    
    1509  -150.00    
    1510  -150.00    
    1511  -150.00    
    1512  -150.00    
    1513  -150.00    
    1514  -150.00    
    1515  -150.00    
    1516  -150.00    
    1517  -150.00    
    1518  -150.00    
    1519  -150.00    
    1520  -150.00    
    1521  -150.00    
1

 ***** ANSYS - ENGINEERING ANALYSIS SYSTEM  RELEASE 15.0      *****
 ANSYS Academic Teaching Advanced                  
 00203145          VERSION=LINUX x64     08:23:48  AUG 20, 2014 CP=     13.939

                                                                               

 
  ***** POST1 NODAL DEGREE OF FREEDOM LISTING *****                            
 
  LOAD STEP=     1  SUBSTEP=     1                                             
   TIME=    1.0000      LOAD CASE=   0                                         
 
    NODE      VOLT  
    1522  -150.00    
    1523  -150.00    
    1524  -150.00    
    1525  -150.00    
    1526  -150.00    
    1527  -150.00    
    1528  -150.00    
    1529  -150.00    
    1530  -150.00    
    1531  -150.00    
    1532  -150.00    
    1533  -150.00    
    1534  -150.00    
    1535  -150.00    
    1536  -150.00    
    1537  -150.00    
    1538  -150.00    
    1539  -150.00    
    1540  -150.00    
    1541  -150.00    
    1542  -150.00    
    1543  -150.00    
    1544  -150.00    
    1545  -150.00    
    1546  -150.00    
    1547  -150.00    
    1548  -150.00    
    1549  -150.00    
    1550  -150.00    
    1551  -150.00    
    1552  -150.00    
    1553  -150.00    
    1554  -150.00    
    1555  -150.00    
    1556  -150.00    
    1557  -150.00    
    1558  -150.00    
    1559  -150.00    
    1560  -150.00    
1

 ***** ANSYS - ENGINEERING ANALYSIS SYSTEM  RELEASE 15.0      *****
 ANSYS Academic Teaching Advanced                  
 00203145          VERSION=LINUX x64     08:23:48  AUG 20, 2014 CP=     13.941

                                                                               

 
  ***** POST1 NODAL DEGREE OF FREEDOM LISTING *****                            
 
  LOAD STEP=     1  SUBSTEP=     1                                             
   TIME=    1.0000      LOAD CASE=   0                                         
 
    NODE      VOLT  
    1561  -150.00    
    1562  -150.00    
    1563  -150.00    
    1564  -150.00    
    1565  -150.00    
    1566  -150.00    
    1567  -150.00    
    1568  -150.00    
    1569  -150.00    
    1570  -150.00    
    1571  -150.00    
    1572  -150.00    
    1573  -150.00    
    1574  -150.00    
    1575  -150.00    
    1576  -150.00    
    1577  -150.00    
    1578  -150.00    
    1579  -150.00    
    1580  -150.00    
    1581  -150.00    
    1582  -150.00    
    1583  -150.00    
    1584  -150.00    
    1585  -150.00    
    1586  -150.00    
    1587  -150.00    
    1588  -150.00    
    1589  -150.00    
    1590  -150.00    
    1591  -150.00    
    1592  -150.00    
    1593  -150.00    
    1594  -150.00    
    1595  -150.00    
    1596  -150.00    
    1597  -150.00    
    1598  -150.00    
    1599  -150.00    
1

 ***** ANSYS - ENGINEERING ANALYSIS SYSTEM  RELEASE 15.0      *****
 ANSYS Academic Teaching Advanced                  
 00203145          VERSION=LINUX x64     08:23:48  AUG 20, 2014 CP=     13.943

                                                                               

 
  ***** POST1 NODAL DEGREE OF FREEDOM LISTING *****                            
 
  LOAD STEP=     1  SUBSTEP=     1                                             
   TIME=    1.0000      LOAD CASE=   0                                         
 
    NODE      VOLT  
    1600  -150.00    
    1601  -150.00    
    1602  -150.00    
    1603  -150.00    
    1604  -150.00    
    1605  -150.00    
    1606  -150.00    
    1607  -150.00    
    1608  -150.00    
    1609  -150.00    
    1610  -150.00    
    1611  -150.00    
    1612  -150.00    
    1613  -150.00    
    1614  -150.00    
    1615  -150.00    
    1616  -150.00    
    1617  -150.00    
    1618  -150.00    
    1619  -150.00    
    1620  -150.00    
    1621  -150.00    
    1622  -150.00    
    1623  -150.00    
    1624  -150.00    
    1625  -150.00    
    1626  -150.00    
    1627  -150.00    
    1628  -150.00    
    1629  -150.00    
    1630  -150.00    
    1631  -150.00    
    1632  -150.00    
    1633  -150.00    
    1634  -150.00    
    1635  -150.00    
    1636  -150.00    
    1637  -150.00    
    1638  -150.00    
1

 ***** ANSYS - ENGINEERING ANALYSIS SYSTEM  RELEASE 15.0      *****
 ANSYS Academic Teaching Advanced                  
 00203145          VERSION=LINUX x64     08:23:48  AUG 20, 2014 CP=     13.943

                                                                               

 
  ***** POST1 NODAL DEGREE OF FREEDOM LISTING *****                            
 
  LOAD STEP=     1  SUBSTEP=     1                                             
   TIME=    1.0000      LOAD CASE=   0                                         
 
    NODE      VOLT  
    1639  -150.00    
    1640  -150.00    
    1641  -150.00    
    1642  -150.00    
    1643  -150.00    
    1644  -150.00    
    1645  -150.00    
    1646  -150.00    
    1647  -150.00    
    1648  -150.00    
    1649  -150.00    
    1650  -150.00    
    1651  -150.00    
    1652  -150.00    
    1653  -150.00    
    1654  -150.00    
    1655  -150.00    
    1656  -150.00    
    1657  -150.00    
    1658  -150.00    
    1659  -150.00    
    1660  -150.00    
    1661  -150.00    
    1662  -150.00    
    1663  -150.00    
    1664  -150.00    
    1665  -150.00    
    1666  -150.00    
    1667  -150.00    
    1668  -150.00    
    1669  -150.00    
    1670  -150.00    
    1671  -150.00    
    1672  -150.00    
    1673  -150.00    
    1674  -150.00    
    1675  -150.00    
    1676  -150.00    
    1677  -150.00    
1

 ***** ANSYS - ENGINEERING ANALYSIS SYSTEM  RELEASE 15.0      *****
 ANSYS Academic Teaching Advanced                  
 00203145          VERSION=LINUX x64     08:23:48  AUG 20, 2014 CP=     13.944

                                                                               

 
  ***** POST1 NODAL DEGREE OF FREEDOM LISTING *****                            
 
  LOAD STEP=     1  SUBSTEP=     1                                             
   TIME=    1.0000      LOAD CASE=   0                                         
 
    NODE      VOLT  
    1678  -150.00    
    1679  -150.00    
    1680  -150.00    
    1681  -150.00    
    1682  -150.00    
    1683  -150.00    
    1684  -150.00    
    1685  -150.00    
    1686  -150.00    
    1687  -150.00    
    1688  -150.00    
    1689  -150.00    
    1690  -150.00    
    1691  -150.00    
    1692  -150.00    
    1693  -150.00    
    1694  -150.00    
    1695  -150.00    
    1696  -150.00    
    1697  -150.00    
    1698  -150.00    
    1699  -150.00    
    1700  -150.00    
    1701  -150.00    
    1702  -150.00    
    1703  -150.00    
    1704  -150.00    
    1705  -150.00    
    1706  -150.00    
    1707  -150.00    
    1708  -150.00    
    1709  -150.00    
    1710  -150.00    
    1711  -150.00    
    1712  -150.00    
    1713  -150.00    
    1714  -150.00    
    1715  -150.00    
    1716  -150.00    
1

 ***** ANSYS - ENGINEERING ANALYSIS SYSTEM  RELEASE 15.0      *****
 ANSYS Academic Teaching Advanced                  
 00203145          VERSION=LINUX x64     08:23:48  AUG 20, 2014 CP=     13.945

                                                                               

 
  ***** POST1 NODAL DEGREE OF FREEDOM LISTING *****                            
 
  LOAD STEP=     1  SUBSTEP=     1                                             
   TIME=    1.0000      LOAD CASE=   0                                         
 
    NODE      VOLT  
    1717  -150.00    
    1718  -150.00    
    1719  -150.00    
    1720  -150.00    
    1721  -150.00    
    1722  -150.00    
    1723  -150.00    
    1724  -150.00    
    1725  -150.00    
    1726  -150.00    
    1727  -150.00    
    1728  -150.00    
    1729  -150.00    
    1730  -150.00    
    1731  -150.00    
    1732  -150.00    
    1733  -150.00    
    1734  -150.00    
    1735  -150.00    
    1736  -150.00    
    1737  -150.00    
    1738  -150.00    
    1739  -150.00    
    1740  -150.00    
    1741  -150.00    
    1742  -150.00    
    1743  -150.00    
    1744  -150.00    
    1745  -150.00    
    1746  -150.00    
    1747  -150.00    
    1748  -150.00    
    1749  -150.00    
    1750  -150.00    
    1751  -150.00    
    1752  -150.00    
    1753  -150.00    
    1754  -150.00    
    1755  -150.00    
1

 ***** ANSYS - ENGINEERING ANALYSIS SYSTEM  RELEASE 15.0      *****
 ANSYS Academic Teaching Advanced                  
 00203145          VERSION=LINUX x64     08:23:48  AUG 20, 2014 CP=     13.946

                                                                               

 
  ***** POST1 NODAL DEGREE OF FREEDOM LISTING *****                            
 
  LOAD STEP=     1  SUBSTEP=     1                                             
   TIME=    1.0000      LOAD CASE=   0                                         
 
    NODE      VOLT  
    1756  -150.00    
    1757  -150.00    
    1758  -150.00    
    1759  -150.00    
    1760  -150.00    
    1761  -150.00    
    1762  -150.00    
    1763  -150.00    
    1764  -150.00    
    1765  -150.00    
    1766  -150.00    
    1767  -150.00    
    1768  -150.00    
    1769  -150.00    
    1770  -150.00    
    1771  -150.00    
    1772  -150.00    
    1773  -150.00    
    1774  -150.00    
    1775  -150.00    
    1776  -150.00    
    1777  -150.00    
    1778  -150.00    
    1779  -150.00    
    1780  -150.00    
    1781  -150.00    
    1782  -150.00    
    1783  -150.00    
    1784  -150.00    
    1785  -150.00    
    1786  -150.00    
    1787  -150.00    
    1788  -150.00    
    1789  -150.00    
    1790  -150.00    
    1791  -150.00    
    1792  -150.00    
    1793  -150.00    
    1794  -150.00    
1

 ***** ANSYS - ENGINEERING ANALYSIS SYSTEM  RELEASE 15.0      *****
 ANSYS Academic Teaching Advanced                  
 00203145          VERSION=LINUX x64     08:23:48  AUG 20, 2014 CP=     13.947

                                                                               

 
  ***** POST1 NODAL DEGREE OF FREEDOM LISTING *****                            
 
  LOAD STEP=     1  SUBSTEP=     1                                             
   TIME=    1.0000      LOAD CASE=   0                                         
 
    NODE      VOLT  
    1795  -150.00    
    1796  -150.00    
    1797  -150.00    
    1798  -150.00    
    1799  -150.00    
    1800  -150.00    
    1801  -150.00    
    1802  -150.00    
    1803  -150.00    
    1804  -150.00    
    1805  -150.00    
    1806  -150.00    
    1807  -150.00    
    1808  -150.00    
    1809  -150.00    
    1810  -150.00    
    1811  -150.00    
    1812  -150.00    
    1813  -150.00    
    1814  -150.00    
    1815  -150.00    
    1816  -150.00    
    1817  -150.00    
    1818  -150.00    
    1819  -150.00    
    1820  -150.00    
    1821  -150.00    
    1822  -150.00    
    1823  -150.00    
    1824  -150.00    
    1825  -150.00    
    1826  -150.00    
    1827  -150.00    
    1828  -150.00    
    1829  -150.00    
    1830  -150.00    
    1831  -150.00    
    1832  -128.26    
    1833  -128.95    
1

 ***** ANSYS - ENGINEERING ANALYSIS SYSTEM  RELEASE 15.0      *****
 ANSYS Academic Teaching Advanced                  
 00203145          VERSION=LINUX x64     08:23:48  AUG 20, 2014 CP=     13.948

                                                                               

 
  ***** POST1 NODAL DEGREE OF FREEDOM LISTING *****                            
 
  LOAD STEP=     1  SUBSTEP=     1                                             
   TIME=    1.0000      LOAD CASE=   0                                         
 
    NODE      VOLT  
    1834  -121.22    
    1835  -121.63    
    1836  -137.34    
    1837  -136.53    
    1838  -120.04    
    1839  -135.74    
    1840  -121.25    
    1841  -136.47    
    1842  -128.32    
    1843  -125.23    
    1844  -126.63    
    1845  -128.38    
    1846  -126.70    
    1847  -129.37    
    1848  -129.90    
    1849  -128.66    
    1850  -129.62    
    1851  -128.21    
    1852  -129.13    
    1853  -127.61    
    1854  -128.58    
    1855  -125.59    
    1856  -127.19    
    1857  -128.30    
    1858  -126.51    
    1859  -127.55    
    1860  -35.442    
    1861  -33.867    
    1862  -51.208    
    1863  -71.587    
    1864  -85.521    
    1865  -106.72    
    1866  -19.266    
    1867  -31.876    
    1868  -92.706    
    1869  -102.70    
    1870  -111.76    
    1871  -100.43    
    1872  -111.13    
1

 ***** ANSYS - ENGINEERING ANALYSIS SYSTEM  RELEASE 15.0      *****
 ANSYS Academic Teaching Advanced                  
 00203145          VERSION=LINUX x64     08:23:48  AUG 20, 2014 CP=     13.949

                                                                               

 
  ***** POST1 NODAL DEGREE OF FREEDOM LISTING *****                            
 
  LOAD STEP=     1  SUBSTEP=     1                                             
   TIME=    1.0000      LOAD CASE=   0                                         
 
    NODE      VOLT  
    1873  -18.871    
    1874  -23.044    
    1875  -7.8442    
    1876  -7.6984    
    1877  -33.302    
    1878  -7.8736    
    1879  -23.376    
    1880  -7.8326    
    1881  -53.844    
    1882  -51.895    
    1883  -66.940    
    1884  -50.598    
    1885  -36.144    
    1886  -36.343    
    1887  -36.883    
    1888  -37.096    
    1889  -38.544    
    1890  -69.515    
    1891  -69.243    
    1892  -70.240    
    1893  -70.080    
    1894  -74.172    
    1895  -90.853    
    1896  -68.432    
    1897  -37.733    
    1898  -62.884    
    1899  -79.563    
    1900  -89.984    
    1901  -21.520    
    1902  -21.963    
    1903  -21.430    
    1904  -90.658    
    1905  -87.475    
    1906  -88.012    
    1907  -90.449    
    1908  -97.821    
    1909  -101.95    
    1910  -72.058    
    1911  -64.075    
1

 ***** ANSYS - ENGINEERING ANALYSIS SYSTEM  RELEASE 15.0      *****
 ANSYS Academic Teaching Advanced                  
 00203145          VERSION=LINUX x64     08:23:48  AUG 20, 2014 CP=     13.950

                                                                               

 
  ***** POST1 NODAL DEGREE OF FREEDOM LISTING *****                            
 
  LOAD STEP=     1  SUBSTEP=     1                                             
   TIME=    1.0000      LOAD CASE=   0                                         
 
    NODE      VOLT  
    1912  -91.282    
    1913  -9.4591    
    1914  -9.5521    
    1915  -9.6691    
    1916  -9.7462    
    1917  -10.271    
    1918  -10.132    
    1919  -9.3714    
    1920  -9.2622    
    1921  -106.60    
    1922  -107.53    
    1923  -104.24    
    1924  -104.28    
    1925  -104.23    
    1926  -103.52    
    1927  -104.60    
    1928  -103.65    
    1929  -105.96    
    1930  -106.57    
    1931  -111.02    
    1932  -111.02    
    1933  -110.94    
    1934  -109.81    
    1935  -57.494    
    1936  -39.700    
    1937  -95.403    
    1938  -79.653    
    1939  -38.149    
    1940  -56.241    
    1941  -73.140    
    1942  -88.851    
    1943  -81.066    
    1944  -47.749    
    1945  -94.591    
    1946  -50.478    
    1947  -101.75    
    1948  -102.83    
    1949  -93.069    
    1950  -88.470    
1

 ***** ANSYS - ENGINEERING ANALYSIS SYSTEM  RELEASE 15.0      *****
 ANSYS Academic Teaching Advanced                  
 00203145          VERSION=LINUX x64     08:23:48  AUG 20, 2014 CP=     13.951

                                                                               

 
  ***** POST1 NODAL DEGREE OF FREEDOM LISTING *****                            
 
  LOAD STEP=     1  SUBSTEP=     1                                             
   TIME=    1.0000      LOAD CASE=   0                                         
 
    NODE      VOLT  
    1951  -88.271    
    1952  -87.482    
    1953  -21.054    
    1954  -22.571    
    1955  -22.077    
    1956  -21.637    
    1957  -78.684    
    1958  -55.904    
    1959  -52.854    
    1960  -51.795    
    1961  -17.427    
    1962  -17.219    
    1963  -104.10    
    1964   128.95    
    1965   82.029    
    1966  -80.500    
    1967  -84.321    
    1968   77.485    
    1969  -10.999    
    1970  -2.4396    
    1971  -86.042    
    1972  -82.237    
    1973  -115.56    
    1974   116.07    
    1975   78.653    
    1976   76.144    
    1977  -114.02    
    1978  -132.76    
    1979  -111.67    
    1980  -132.81    
    1981   111.90    
    1982   110.37    
    1983   131.45    
    1984   131.49    
    1985  -6.0383    
    1986   22.556    
    1987   31.056    
    1988   22.859    
    1989   47.229    
1

 ***** ANSYS - ENGINEERING ANALYSIS SYSTEM  RELEASE 15.0      *****
 ANSYS Academic Teaching Advanced                  
 00203145          VERSION=LINUX x64     08:23:48  AUG 20, 2014 CP=     13.952

                                                                               

 
  ***** POST1 NODAL DEGREE OF FREEDOM LISTING *****                            
 
  LOAD STEP=     1  SUBSTEP=     1                                             
   TIME=    1.0000      LOAD CASE=   0                                         
 
    NODE      VOLT  
    1990   51.268    
    1991   53.120    
    1992   85.666    
    1993  -53.290    
    1994  -27.112    
    1995  -28.203    
    1996  -57.906    
    1997  -39.509    
    1998  -85.249    
    1999   8.9930    
    2000   70.476    
    2001  -59.385    
    2002   108.09    
    2003  -108.78    
    2004   36.499    
    2005   55.039    
    2006   7.3030    
    2007  -9.1603    
    2008  -44.706    
    2009  -26.999    
    2010   83.752    
    2011   101.08    
    2012  -100.68    
    2013  -83.466    
    2014   130.49    
    2015   130.05    
    2016   130.33    
    2017   127.43    
    2018  -131.31    
    2019  -131.16    
    2020  -130.89    
    2021  -127.37    
    2022   123.08    
    2023   126.02    
    2024  -125.98    
    2025  -124.05    
    2026  -102.10    
    2027   102.35    
    2028  -112.26    
1

 ***** ANSYS - ENGINEERING ANALYSIS SYSTEM  RELEASE 15.0      *****
 ANSYS Academic Teaching Advanced                  
 00203145          VERSION=LINUX x64     08:23:48  AUG 20, 2014 CP=     13.953

                                                                               

 
  ***** POST1 NODAL DEGREE OF FREEDOM LISTING *****                            
 
  LOAD STEP=     1  SUBSTEP=     1                                             
   TIME=    1.0000      LOAD CASE=   0                                         
 
    NODE      VOLT  
    2029   110.63    
    2030  -21.626    
    2031   41.261    
    2032  -58.422    
    2033  -56.667    
    2034   1.6613    
    2035   60.848    
    2036   44.593    
    2037   112.95    
    2038  -115.56    
    2039   34.960    
    2040   91.941    
    2041   82.340    
    2042   61.641    
    2043   106.96    
    2044   33.395    
    2045   102.80    
    2046   31.246    
    2047   18.188    
    2048   7.8197    
    2049   23.017    
    2050   7.6655    
    2051   19.165    
    2052   23.782    
    2053   8.1946    
    2054   8.1029    
    2055   93.084    
    2056   100.65    
    2057   111.98    
    2058   111.60    
    2059   54.199    
    2060   53.113    
    2061   63.193    
    2062   69.281    
    2063   69.862    
    2064   72.435    
    2065   75.925    
    2066   72.342    
    2067   68.745    
1

 ***** ANSYS - ENGINEERING ANALYSIS SYSTEM  RELEASE 15.0      *****
 ANSYS Academic Teaching Advanced                  
 00203145          VERSION=LINUX x64     08:23:48  AUG 20, 2014 CP=     13.954

                                                                               

 
  ***** POST1 NODAL DEGREE OF FREEDOM LISTING *****                            
 
  LOAD STEP=     1  SUBSTEP=     1                                             
   TIME=    1.0000      LOAD CASE=   0                                         
 
    NODE      VOLT  
    2068   89.190    
    2069   89.459    
    2070   79.363    
    2071   36.680    
    2072   38.923    
    2073   39.188    
    2074   35.392    
    2075   35.924    
    2076   50.596    
    2077   68.187    
    2078   47.913    
    2079   34.381    
    2080   90.612    
    2081   87.465    
    2082   91.405    
    2083   91.396    
    2084   94.938    
    2085   101.32    
    2086   21.398    
    2087   21.849    
    2088   20.647    
    2089   72.055    
    2090   64.047    
    2091   32.780    
    2092   107.03    
    2093   107.38    
    2094   103.96    
    2095   103.93    
    2096   104.15    
    2097   104.82    
    2098   107.42    
    2099   107.14    
    2100   104.57    
    2101   104.78    
    2102   110.30    
    2103   110.89    
    2104   111.04    
    2105   111.22    
    2106   9.4385    
1

 ***** ANSYS - ENGINEERING ANALYSIS SYSTEM  RELEASE 15.0      *****
 ANSYS Academic Teaching Advanced                  
 00203145          VERSION=LINUX x64     08:23:48  AUG 20, 2014 CP=     13.955

                                                                               

 
  ***** POST1 NODAL DEGREE OF FREEDOM LISTING *****                            
 
  LOAD STEP=     1  SUBSTEP=     1                                             
   TIME=    1.0000      LOAD CASE=   0                                         
 
    NODE      VOLT  
    2107   9.3904    
    2108   10.183    
    2109   9.9765    
    2110   10.101    
    2111   10.060    
    2112   8.9482    
    2113   8.9662    
    2114   79.905    
    2115   95.686    
    2116   39.769    
    2117   57.533    
    2118   89.232    
    2119   73.581    
    2120   55.826    
    2121   37.830    
    2122   46.747    
    2123   81.853    
    2124   50.236    
    2125   94.703    
    2126   19.990    
    2127   21.928    
    2128   22.512    
    2129   21.024    
    2130   102.00    
    2131   101.25    
    2132   88.382    
    2133   94.820    
    2134   88.703    
    2135   87.358    
    2136   49.958    
    2137   52.098    
    2138   57.386    
    2139   77.091    
    2140   104.15    
    2141   17.835    
    2142   16.877    
    2143   128.06    
    2144   49.903    
    2145   74.597    
1

 ***** ANSYS - ENGINEERING ANALYSIS SYSTEM  RELEASE 15.0      *****
 ANSYS Academic Teaching Advanced                  
 00203145          VERSION=LINUX x64     08:23:48  AUG 20, 2014 CP=     13.956

                                                                               

 
  ***** POST1 NODAL DEGREE OF FREEDOM LISTING *****                            
 
  LOAD STEP=     1  SUBSTEP=     1                                             
   TIME=    1.0000      LOAD CASE=   0                                         
 
    NODE      VOLT  
    2146   49.918    
    2147   87.814    
    2148  -37.372    
    2149   87.877    
    2150  -84.993    
    2151   121.17    
    2152  -124.96    
    2153  -116.66    
    2154   63.318    
    2155  -110.06    
    2156   114.15    
    2157  -124.94    
    2158   36.996    
    2159  -40.660    
    2160  -129.18    
    2161   109.99    
    2162   139.43    
    2163   118.30    
    2164   139.43    
    2165   19.481    
    2166  -39.756    
    2167  -38.874    
    2168   32.187    
    2169   32.813    
    2170   81.349    
    2171   91.756    
    2172  -81.539    
    2173  -85.627    
    2174  -30.242    
    2175   40.060    
    2176  -55.259    
    2177  -1.0052    
    2178  -37.882    
    2179   50.501    
    2180  -28.102    
    2181  -18.805    
    2182   8.1748    
    2183   8.1659    
    2184  -26.377    
1

 ***** ANSYS - ENGINEERING ANALYSIS SYSTEM  RELEASE 15.0      *****
 ANSYS Academic Teaching Advanced                  
 00203145          VERSION=LINUX x64     08:23:48  AUG 20, 2014 CP=     13.957

                                                                               

 
  ***** POST1 NODAL DEGREE OF FREEDOM LISTING *****                            
 
  LOAD STEP=     1  SUBSTEP=     1                                             
   TIME=    1.0000      LOAD CASE=   0                                         
 
    NODE      VOLT  
    2185  -45.275    
    2186  -49.607    
    2187  -65.045    
    2188  -19.442    
    2189  -27.030    
    2190  -41.851    
    2191  -8.3329    
    2192   13.191    
    2193  -77.383    
    2194  -54.040    
    2195  -63.345    
    2196   39.263    
    2197   4.1929    
    2198 -0.30235    
    2199   29.777    
    2200   35.900    
    2201   22.930    
    2202   55.834    
    2203  -84.992    
    2204  -88.817    
    2205   34.547    
    2206   30.173    
    2207   65.311    
[...]
 
    NODE      VOLT  
   12130   74.455    
   12131   42.635    
   12132   149.72    
   12133   112.65    
   12134   129.41    
   12135   127.59    
   12136   135.55    
   12137   134.38    
   12138   125.31    
   12139   136.38    
   12140   133.87    
   12141   139.22    
   12142   135.93    
   12143   149.67    
   12144   137.79    
   12145   139.32    
   12146   133.64    
   12147   148.78    
   12148  -53.367    
   12149  -10.500    
   12150  -40.592    
   12151   148.53    
   12152   149.54    
   12153   149.31    
   12154   148.98    
   12155   149.38    
   12156   149.31    
   12157   138.48    
   12158   117.99    
   12159   141.33    
   12160   107.98    
   12161   123.85    
   12162   109.54    
   12163   137.09    
   12164   126.00    
   12165   147.09    
   12166   148.33    
   12167   149.56    
   12168   149.51    
1

 ***** ANSYS - ENGINEERING ANALYSIS SYSTEM  RELEASE 15.0      *****
 ANSYS Academic Teaching Advanced                  
 00203145          VERSION=LINUX x64     08:23:48  AUG 20, 2014 CP=     14.224

                                                                               

 
  ***** POST1 NODAL DEGREE OF FREEDOM LISTING *****                            
 
  LOAD STEP=     1  SUBSTEP=     1                                             
   TIME=    1.0000      LOAD CASE=   0                                         
 
    NODE      VOLT  
   12169   149.80    
   12170   149.63    
   12171   149.10    
   12172  -148.90    
   12173  -144.82    
   12174  -146.19    
   12175  -140.65    
   12176  -143.60    
   12177  -148.84    
   12178   135.53    
   12179  -101.06    
   12180  -123.95    
   12181  -113.26    
   12182  -126.44    
   12183   149.36    
   12184   148.80    
   12185   149.43    
   12186   149.61    
   12187   149.61    
   12188   149.22    
   12189   149.36    
   12190   148.97    
   12191   149.42    
   12192   149.59    
   12193   149.49    
   12194   149.29    
   12195   149.11    
   12196   149.20    
   12197   149.18    
   12198   149.66    
   12199   149.53    
   12200   149.59    
   12201   99.167    
   12202   71.859    
   12203   122.09    
   12204   148.01    
   12205   140.26    
   12206  -83.463    
   12207   143.74    
1

 ***** ANSYS - ENGINEERING ANALYSIS SYSTEM  RELEASE 15.0      *****
 ANSYS Academic Teaching Advanced                  
 00203145          VERSION=LINUX x64     08:23:48  AUG 20, 2014 CP=     14.225

                                                                               

 
  ***** POST1 NODAL DEGREE OF FREEDOM LISTING *****                            
 
  LOAD STEP=     1  SUBSTEP=     1                                             
   TIME=    1.0000      LOAD CASE=   0                                         
 
    NODE      VOLT  
   12208   146.18    
   12209   147.55    
   12210   147.14    
   12211   146.03    
   12212   144.84    
   12213   147.82    
   12214   147.51    
   12215   143.36    
   12216   135.60    
   12217   124.74    
   12218   137.52    
   12219   137.29    
   12220   145.32    
   12221   133.97    
   12222   133.33    
   12223   146.80    
   12224   149.31    
   12225   149.50    
   12226  -61.498    
   12227  -52.155    
   12228   125.46    
   12229   136.92    
   12230   135.91    
   12231   148.72    
   12232   110.37    
   12233   146.52    
   12234   139.04    
   12235   136.76    
   12236   135.64    
   12237   72.346    
   12238   97.738    
   12239   84.528    
   12240  -147.77    
   12241  -149.08    
   12242  -121.23    
   12243  -129.19    
   12244   96.930    
   12245   85.023    
   12246   107.43    
1

 ***** ANSYS - ENGINEERING ANALYSIS SYSTEM  RELEASE 15.0      *****
 ANSYS Academic Teaching Advanced                  
 00203145          VERSION=LINUX x64     08:23:48  AUG 20, 2014 CP=     14.226

                                                                               

 
  ***** POST1 NODAL DEGREE OF FREEDOM LISTING *****                            
 
  LOAD STEP=     1  SUBSTEP=     1                                             
   TIME=    1.0000      LOAD CASE=   0                                         
 
    NODE      VOLT  
   12247   42.461    
   12248   55.587    
   12249   49.442    
   12250   62.266    
   12251  -148.32    
   12252  -145.86    
   12253  -138.64    
   12254  -141.72    
   12255  -139.90    
   12256   149.07    
   12257   149.23    
   12258   149.37    
   12259   149.57    
   12260   149.79    
   12261   149.60    
   12262   149.10    
   12263   149.26    
   12264   149.16    
   12265   140.28    
   12266   149.55    
   12267   136.92    
   12268   113.07    
   12269  -22.684    
   12270   149.59    
   12271  -146.63    
   12272  -120.19    
   12273  -141.20    
   12274  -140.18    
   12275  -140.87    
   12276  -135.99    
   12277  -147.00    
   12278  -143.72    
   12279  -145.31    
   12280  -145.49    
   12281   139.45    
   12282   136.00    
   12283   119.11    
   12284   138.65    
   12285   149.68    
1

 ***** ANSYS - ENGINEERING ANALYSIS SYSTEM  RELEASE 15.0      *****
 ANSYS Academic Teaching Advanced                  
 00203145          VERSION=LINUX x64     08:23:48  AUG 20, 2014 CP=     14.227

                                                                               

 
  ***** POST1 NODAL DEGREE OF FREEDOM LISTING *****                            
 
  LOAD STEP=     1  SUBSTEP=     1                                             
   TIME=    1.0000      LOAD CASE=   0                                         
 
    NODE      VOLT  
   12286   149.68    
   12287   149.70    
   12288   149.47    
   12289   149.63    
   12290   149.69    
   12291   149.39    
   12292   149.46    
   12293  -148.74    
   12294  -148.95    
   12295  -147.76    
   12296  -137.59    
   12297  -147.37    
   12298  -143.69    
   12299  -149.02    
   12300  -148.04    
   12301   137.01    
   12302  -149.17    
   12303  -144.04    
   12304  -144.52    
   12305  -147.47    
   12306   15.543    
   12307   42.061    
   12308  -135.93    
   12309   148.93    
   12310   149.61    
   12311   149.72    
   12312   149.51    
   12313  -135.38    
   12314  -148.63    
   12315  -148.26    
   12316  -137.18    
   12317  -143.91    
   12318   145.81    
   12319   149.76    
   12320   149.36    
   12321   149.14    
   12322  -148.83    
   12323  -148.04    
   12324  -148.82    
1

 ***** ANSYS - ENGINEERING ANALYSIS SYSTEM  RELEASE 15.0      *****
 ANSYS Academic Teaching Advanced                  
 00203145          VERSION=LINUX x64     08:23:48  AUG 20, 2014 CP=     14.228

                                                                               

 
  ***** POST1 NODAL DEGREE OF FREEDOM LISTING *****                            
 
  LOAD STEP=     1  SUBSTEP=     1                                             
   TIME=    1.0000      LOAD CASE=   0                                         
 
    NODE      VOLT  
   12325  -148.90    
   12326   149.73    
   12327   149.57    
   12328   149.62    
   12329   148.99    
   12330   149.38    
   12331   150.56    
   12332   149.52    
   12333   149.64    
   12334   149.54    
   12335   149.51    
   12336   149.60    
   12337   149.28    
   12338   149.07    
   12339   149.54    
   12340   149.53    
   12341   149.60    
   12342   149.62    
   12343   149.66    
   12344   148.00    
   12345   149.20    
   12346  -148.98    
   12347  -149.02    
   12348  -149.15    
   12349   146.54    
   12350   149.14    
   12351   149.10    
   12352   147.71    
   12353   149.90    
   12354  -58.801    
   12355   119.01    
   12356   149.77    
   12357   149.50    
   12358   149.75    
   12359   115.07    
   12360   149.72    
   12361   147.28    
   12362   148.94    
   12363   148.20    
1

 ***** ANSYS - ENGINEERING ANALYSIS SYSTEM  RELEASE 15.0      *****
 ANSYS Academic Teaching Advanced                  
 00203145          VERSION=LINUX x64     08:23:48  AUG 20, 2014 CP=     14.229

                                                                               

 
  ***** POST1 NODAL DEGREE OF FREEDOM LISTING *****                            
 
  LOAD STEP=     1  SUBSTEP=     1                                             
   TIME=    1.0000      LOAD CASE=   0                                         
 
    NODE      VOLT  
   12364  -124.18    
   12365   149.43    
   12366   139.32    
   12367   146.09    
   12368   148.36    
   12369   149.64    
   12370   149.51    
   12371   81.483    
   12372   149.68    
   12373   149.72    
   12374   149.72    
   12375   149.78    
   12376   30.742    
   12377   20.295    
   12378   91.690    
   12379   136.38    
   12380   136.66    
   12381   135.71    
   12382   126.21    
   12383   149.71    
   12384  -131.02    
   12385  -137.82    
   12386  -140.72    
   12387  -142.49    
   12388  -20.714    
   12389  -38.309    
   12390   261.67    
   12391   253.00    
   12392  -82.386    
   12393   285.18    
   12394   279.01    
   12395   289.05    
   12396   298.05    
   12397   293.84    
   12398   300.56    
   12399   297.72    
   12400   341.75    
   12401   346.23    
   12402   335.10    
1

 ***** ANSYS - ENGINEERING ANALYSIS SYSTEM  RELEASE 15.0      *****
 ANSYS Academic Teaching Advanced                  
 00203145          VERSION=LINUX x64     08:23:48  AUG 20, 2014 CP=     14.231

                                                                               

 
  ***** POST1 NODAL DEGREE OF FREEDOM LISTING *****                            
 
  LOAD STEP=     1  SUBSTEP=     1                                             
   TIME=    1.0000      LOAD CASE=   0                                         
 
    NODE      VOLT  
   12403   340.97    
   12404   337.90    
   12405   149.80    
   12406   149.81    
   12407  -148.66    
   12408   305.03    
   12409   305.37    
   12410  -149.06    
   12411  -149.57    
   12412  -149.56    
   12413   56.997    
   12414  -140.65    
   12415  -142.62    
   12416  -143.46    
   12417   341.74    
   12418   341.65    
   12419   340.94    
   12420   337.87    
   12421   332.11    
   12422   328.85    
   12423   320.88    
   12424   322.98    
   12425   332.11    
   12426   335.07    
   12427   325.38    
   12428  -184.71    
   12429  -185.92    
   12430  -187.21    
   12431  -148.71    
   12432   18.158    
   12433   136.56    
   12434   135.95    
   12435   136.09    
   12436   126.37    
   12437  -148.81    
   12438  -149.03    
   12439  -149.06    
   12440  -149.16    
   12441  -197.42    
1

 ***** ANSYS - ENGINEERING ANALYSIS SYSTEM  RELEASE 15.0      *****
 ANSYS Academic Teaching Advanced                  
 00203145          VERSION=LINUX x64     08:23:48  AUG 20, 2014 CP=     14.231

                                                                               

 
  ***** POST1 NODAL DEGREE OF FREEDOM LISTING *****                            
 
  LOAD STEP=     1  SUBSTEP=     1                                             
   TIME=    1.0000      LOAD CASE=   0                                         
 
    NODE      VOLT  
   12442  -195.75    
   12443  -196.55    
   12444  -197.42    
   12445  -198.70    
   12446  -198.70    
   12447  -198.73    
   12448  -197.62    
   12449  -197.65    
   12450  -198.93    
   12451  -39.884    
   12452  -97.553    
   12453  -107.23    
   12454   149.38    
   12455  -182.17    
   12456  -184.63    
   12457   143.57    
   12458   126.89    
   12459   132.89    
   12460   146.37    
   12461   136.20    
   12462   136.34    
   12463   135.37    
   12464  -146.23    
   12465  -145.13    
   12466  -178.62    
   12467   71.501    
   12468   149.01    
   12469   136.69    
   12470   136.74    
   12471  -148.99    
   12472  -148.79    
   12473  -147.34    
   12474  -149.31    
   12475  -149.36    
   12476  -148.69    
   12477  -148.54    
   12478  -135.85    
   12479  -149.20    
   12480  -149.03    
1

 ***** ANSYS - ENGINEERING ANALYSIS SYSTEM  RELEASE 15.0      *****
 ANSYS Academic Teaching Advanced                  
 00203145          VERSION=LINUX x64     08:23:48  AUG 20, 2014 CP=     14.232

                                                                               

 
  ***** POST1 NODAL DEGREE OF FREEDOM LISTING *****                            
 
  LOAD STEP=     1  SUBSTEP=     1                                             
   TIME=    1.0000      LOAD CASE=   0                                         
 
    NODE      VOLT  
   12481   315.47    
   12482   341.67    
   12483   309.83    
   12484   311.60    
   12485   315.47    
   12486  -198.93    
   12487  -198.70    
   12488  -198.73    
   12489  -149.39    
   12490   148.49    
   12491   148.89    
   12492   149.02    
   12493   149.64    
   12494   235.66    
   12495   176.28    
   12496   172.66    
   12497   180.38    
   12498   173.49    
   12499   167.90    
   12500  -146.04    
   12501   32.788    
   12502   4.8949    
   12503   52.644    
   12504   55.756    
   12505   340.94    
   12506   345.45    
   12507  -126.29    
   12508  -124.40    
   12509  -132.45    
   12510   75.246    
   12511   77.976    
   12512   142.67    
   12513  -137.90    
   12514  -136.50    
   12515  -135.67    
   12516  -147.28    
   12517   32.584    
   12518  -147.57    
   12519   226.57    
1

 ***** ANSYS - ENGINEERING ANALYSIS SYSTEM  RELEASE 15.0      *****
 ANSYS Academic Teaching Advanced                  
 00203145          VERSION=LINUX x64     08:23:48  AUG 20, 2014 CP=     14.233

                                                                               

 
  ***** POST1 NODAL DEGREE OF FREEDOM LISTING *****                            
 
  LOAD STEP=     1  SUBSTEP=     1                                             
   TIME=    1.0000      LOAD CASE=   0                                         
 
    NODE      VOLT  
   12520  -145.96    
   12521  -147.92    
   12522   345.52    
   12523   345.52    
   12524  -149.01    
   12525  -149.00    
   12526  -148.27    
   12527  -169.83    
   12528  -172.04    
   12529  -174.00    
   12530  -175.12    
   12531  -143.57    
   12532  -176.47    
   12533  -138.67    
   12534  -88.046    
   12535  -31.742    
   12536   345.42    
   12537  -148.92    
   12538  -144.07    
   12539  -145.13    
   12540   182.43    
   12541   346.23    
   12542   187.46    
   12543   193.79    
   12544   202.43    
   12545   195.91    
   12546   204.58    
   12547  -195.76    
   12548   189.29    
   12549  -148.17    
   12550  -142.48    
   12551  -143.30    
   12552  -194.91    
   12553  -198.72    
   12554  -148.88    
   12555  -140.82    
   12556   270.34    
   12557  -136.10    
   12558   89.364    
1

 ***** ANSYS - ENGINEERING ANALYSIS SYSTEM  RELEASE 15.0      *****
 ANSYS Academic Teaching Advanced                  
 00203145          VERSION=LINUX x64     08:23:48  AUG 20, 2014 CP=     14.234

                                                                               

 
  ***** POST1 NODAL DEGREE OF FREEDOM LISTING *****                            
 
  LOAD STEP=     1  SUBSTEP=     1                                             
   TIME=    1.0000      LOAD CASE=   0                                         
 
    NODE      VOLT  
   12559  -135.62    
   12560  -96.450    
   12561  -135.87    
   12562  -148.83    
   12563   140.56    
   12564  -148.94    
   12565   149.67    
   12566  -149.40    
   12567   149.81    
   12568  -148.49    
   12569  -148.15    
   12570  -149.08    
   12571  -149.04    
   12572  -143.45    
   12573  -148.97    
   12574  -148.16    
   12575  -147.36    
   12576  -149.04    
   12577  -148.11    
   12578  -148.85    
   12579  -148.99    
   12580  -148.93    
   12581  -156.16    
   12582  -158.63    
   12583  -181.05    
   12584  -144.76    
   12585   186.06    
   12586  -135.33    
   12587  -145.25    
   12588  -148.97    
   12589  -149.75    
   12590   345.42    
   12591  -98.939    
   12592  -177.28    
   12593  -140.27    
   12594  -148.18    
   12595  -135.67    
   12596  -134.64    
   12597  -144.17    
1

 ***** ANSYS - ENGINEERING ANALYSIS SYSTEM  RELEASE 15.0      *****
 ANSYS Academic Teaching Advanced                  
 00203145          VERSION=LINUX x64     08:23:48  AUG 20, 2014 CP=     14.235

                                                                               

 
  ***** POST1 NODAL DEGREE OF FREEDOM LISTING *****                            
 
  LOAD STEP=     1  SUBSTEP=     1                                             
   TIME=    1.0000      LOAD CASE=   0                                         
 
    NODE      VOLT  
   12598   149.70    
   12599  -140.20    
   12600   147.10    
   12601   149.82    
   12602   149.83    
   12603   149.89    
   12604  -135.78    
   12605   148.84    
   12606   148.78    
   12607  -148.62    
   12608  -148.18    
   12609  -99.100    
   12610  -149.07    
   12611  -149.05    
   12612  -149.06    
   12613   124.96    
   12614   129.07    
   12615   138.06    
   12616   142.38    
   12617  -144.99    
   12618   37.766    
   12619   179.12    
   12620  -192.32    
   12621   136.73    
   12622  -148.50    
   12623  -62.236    
   12624   149.78    
   12625  -190.17    
   12626  -192.99    
   12627  -191.71    
   12628  -188.99    
   12629  -136.99    
   12630  -20.623    
   12631  -11.071    
   12632  -66.905    
   12633   136.08    
   12634  -94.863    
   12635   137.65    
   12636   76.177    
1

 ***** ANSYS - ENGINEERING ANALYSIS SYSTEM  RELEASE 15.0      *****
 ANSYS Academic Teaching Advanced                  
 00203145          VERSION=LINUX x64     08:23:48  AUG 20, 2014 CP=     14.236

                                                                               

 
  ***** POST1 NODAL DEGREE OF FREEDOM LISTING *****                            
 
  LOAD STEP=     1  SUBSTEP=     1                                             
   TIME=    1.0000      LOAD CASE=   0                                         
 
    NODE      VOLT  
   12637   142.57    
   12638  -136.64    
   12639  -148.85    
   12640  -148.57    
   12641  -144.46    
   12642  -131.05    
   12643  -142.19    
   12644  -148.09    
   12645   149.66    
   12646  -153.59    
   12647  -154.10    
   12648  -152.15    
   12649  -194.91    
   12650   129.91    
   12651  -105.33    
   12652   149.89    
   12653  -162.53    
   12654  -160.08    
   12655  -158.02    
   12656  -164.90    
   12657  -193.98    
   12658  -126.71    
   12659  -141.89    
   12660  -132.82    
   12661  -142.45    
   12662   149.90    
   12663  -183.51    
   12664   149.02    
   12665  -148.80    
   12666  -151.75    
   12667   209.68    
   12668   218.33    
   12669  -190.17    
   12670  -187.13    
   12671  -143.86    
   12672  -188.48    
   12673  -179.75    
   12674  -167.47    
   12675   243.91    
1

 ***** ANSYS - ENGINEERING ANALYSIS SYSTEM  RELEASE 15.0      *****
 ANSYS Academic Teaching Advanced                  
 00203145          VERSION=LINUX x64     08:23:48  AUG 20, 2014 CP=     14.237

                                                                               

 
  ***** POST1 NODAL DEGREE OF FREEDOM LISTING *****                            
 
  LOAD STEP=     1  SUBSTEP=     1                                             
   TIME=    1.0000      LOAD CASE=   0                                         
 
    NODE      VOLT  
   12676  -155.56    
   12677  -147.37    
   12678   149.27    
   12679   149.77    
   12680  -151.39    
   12681  -153.17    

 MAXIMUM ABSOLUTE VALUES
 NODE         30
 VALUE    350.00    
