
 LIST ALL SELECTED NODES.   DSYS=      0
1

 ***** ANSYS - ENGINEERING ANALYSIS SYSTEM  RELEASE 15.0      *****
 ANSYS Academic Research                           
 00203145          VERSION=LINUX x64     17:53:12  SEP 22, 2014 CP=     11.576

                                                                               


   NODE        X                   Y                   Z
        1   0.500000000000E-01   0.516025403784E-01  -0.250000000000E-01
        2   0.500000000000E-01   0.716025403784E-01    0.00000000000    
        3   0.500000000000E-01    0.00000000000      -0.300000000000E-01
        4   0.400000000000E-01    0.00000000000      -0.300000000000E-01
        5   0.500000000000E-01   0.466025403784E-01  -0.250000000000E-01
        6   0.150000000000E-01   0.866025403784E-01  -0.250000000000E-01
        7   0.100000000000E-01   0.866025403784E-01  -0.250000000000E-01
        8    0.00000000000       0.866025403784E-01  -0.300000000000E-01
        9   0.346944695195E-17   0.400000000000E-01  -0.300000000000E-01
       10   0.500000000000E-01   0.516025403784E-01   0.250000000000E-01
       11   0.150000000000E-01   0.866025403784E-01   0.250000000000E-01
       12   0.100000000000E-01   0.866025403784E-01   0.250000000000E-01
       13   0.500000000000E-01    0.00000000000      -0.250000000000E-01
       14   0.500000000000E-01    0.00000000000       0.250000000000E-01
       15   0.346944695195E-17   0.400000000000E-01  -0.250000000000E-01
       16    0.00000000000       0.866025403784E-01   0.250000000000E-01
       17    0.00000000000       0.866025403784E-01  -0.250000000000E-01
       18   0.500000000000E-01   0.466025403784E-01  -0.300000000000E-01
       19   0.500000000000E-01    0.00000000000       0.300000000000E-01
       20   0.400000000000E-01    0.00000000000       0.300000000000E-01
       21    0.00000000000       0.866025403784E-01   0.300000000000E-01
       22   0.346944695195E-17   0.400000000000E-01   0.300000000000E-01
       23   0.100000000000E-01   0.866025403784E-01  -0.300000000000E-01
       24   0.346944695195E-17   0.400000000000E-01   0.250000000000E-01
       25   0.500000000000E-01    0.00000000000        1.00000000000    
       26   0.500000000000E-01   0.466025403784E-01   0.300000000000E-01
       27   0.500000000000E-01   0.466025403784E-01   0.250000000000E-01
       28    0.00000000000       0.866025403784E-01    1.00000000000    
       29   0.100000000000E-01   0.866025403784E-01   0.300000000000E-01
       30   0.500000000000E-01    0.00000000000       -1.00000000000    
       31    0.00000000000       0.866025403784E-01   -1.00000000000    
       32    0.00000000000        0.00000000000       -1.00000000000    
       33   0.500000000000E-01   0.866025403784E-01   -1.00000000000    
       34    0.00000000000        0.00000000000        1.00000000000    
       35   0.500000000000E-01   0.866025403784E-01    1.00000000000    
       36   0.350000000000E-01    0.00000000000      -0.250000000000E-01
       37   0.346944695195E-17   0.350000000000E-01  -0.250000000000E-01
       38   0.150000000000E-01    0.00000000000        0.00000000000    
       39   0.867361737988E-18   0.150000000000E-01    0.00000000000    
       40   0.350000000000E-01    0.00000000000       0.250000000000E-01
       41   0.346944695195E-17   0.350000000000E-01   0.250000000000E-01
       42   0.400000000000E-01    0.00000000000       0.250000000000E-01
       43   0.400000000000E-01    0.00000000000      -0.250000000000E-01
       44   0.350000000000E-01   0.866025403784E-01    0.00000000000    
       45   0.500000000000E-01   0.531642779973E-01  -0.230478279764E-01
       46   0.500000000000E-01   0.547260156162E-01  -0.210956559528E-01
       47   0.500000000000E-01   0.569102742633E-01  -0.183653326439E-01
       48   0.500000000000E-01   0.590945329104E-01  -0.156350093351E-01
       49   0.500000000000E-01   0.618352973885E-01  -0.122090537375E-01
       50   0.500000000000E-01   0.645760618666E-01  -0.878309813986E-02
1

 ***** ANSYS - ENGINEERING ANALYSIS SYSTEM  RELEASE 15.0      *****
 ANSYS Academic Research                           
 00203145          VERSION=LINUX x64     17:53:12  SEP 22, 2014 CP=     11.577

                                                                               


   NODE        X                   Y                   Z
       51   0.500000000000E-01   0.665210100241E-01  -0.635191294297E-02
       52   0.500000000000E-01   0.684659581816E-01  -0.392072774607E-02
       53   0.500000000000E-01   0.700342492800E-01  -0.196036387304E-02
       54   0.470000000000E-01    0.00000000000      -0.300000000000E-01
       55   0.440000000000E-01    0.00000000000      -0.300000000000E-01
       56   0.420000000000E-01    0.00000000000      -0.300000000000E-01
       57    0.00000000000       0.832019052838E-01  -0.300000000000E-01
       58    0.00000000000       0.798012701892E-01  -0.300000000000E-01
       59    0.00000000000       0.764006350946E-01  -0.300000000000E-01
       60    0.00000000000       0.730000000000E-01  -0.300000000000E-01
       61    0.00000000000       0.695000000000E-01  -0.300000000000E-01
       62    0.00000000000       0.660000000000E-01  -0.300000000000E-01
       63    0.00000000000       0.625000000000E-01  -0.300000000000E-01
       64    0.00000000000       0.590000000000E-01  -0.300000000000E-01
       65    0.00000000000       0.555000000000E-01  -0.300000000000E-01
       66    0.00000000000       0.520000000000E-01  -0.300000000000E-01
       67    0.00000000000       0.485000000000E-01  -0.300000000000E-01
       68    0.00000000000       0.450000000000E-01  -0.300000000000E-01
       69    0.00000000000       0.425000000000E-01  -0.300000000000E-01
       70   0.500000000000E-01   0.700342492800E-01   0.196036387304E-02
       71   0.500000000000E-01   0.684659581816E-01   0.392072774607E-02
       72   0.500000000000E-01   0.665210100241E-01   0.635191294297E-02
       73   0.500000000000E-01   0.645760618666E-01   0.878309813986E-02
       74   0.500000000000E-01   0.618352973885E-01   0.122090537375E-01
       75   0.500000000000E-01   0.590945329104E-01   0.156350093351E-01
       76   0.500000000000E-01   0.569102742633E-01   0.183653326439E-01
       77   0.500000000000E-01   0.547260156162E-01   0.210956559528E-01
       78   0.500000000000E-01   0.531642779973E-01   0.230478279764E-01
       79   0.500000000000E-01    0.00000000000      -0.215000000000E-01
       80   0.500000000000E-01    0.00000000000      -0.180000000000E-01
       81   0.500000000000E-01    0.00000000000      -0.135894244419E-01
       82   0.500000000000E-01    0.00000000000      -0.917884888375E-02
       83   0.500000000000E-01    0.00000000000      -0.464228804511E-02
       84   0.500000000000E-01    0.00000000000      -0.105727206468E-03
       85   0.500000000000E-01    0.00000000000       0.453656083864E-02
       86   0.500000000000E-01    0.00000000000       0.917884888375E-02
       87   0.500000000000E-01    0.00000000000       0.135894244419E-01
       88   0.500000000000E-01    0.00000000000       0.180000000000E-01
       89   0.500000000000E-01    0.00000000000       0.215000000000E-01
       90    0.00000000000       0.866025403784E-01   0.215000000000E-01
       91    0.00000000000       0.866025403784E-01   0.180000000000E-01
       92    0.00000000000       0.866025403784E-01   0.135894244419E-01
       93    0.00000000000       0.866025403784E-01   0.917884888375E-02
       94    0.00000000000       0.866025403784E-01   0.464228804511E-02
       95    0.00000000000       0.866025403784E-01   0.105727206468E-03
       96    0.00000000000       0.866025403784E-01  -0.453656083864E-02
       97    0.00000000000       0.866025403784E-01  -0.917884888375E-02
       98    0.00000000000       0.866025403784E-01  -0.135894244419E-01
       99    0.00000000000       0.866025403784E-01  -0.180000000000E-01
      100    0.00000000000       0.866025403784E-01  -0.215000000000E-01
1

 ***** ANSYS - ENGINEERING ANALYSIS SYSTEM  RELEASE 15.0      *****
 ANSYS Academic Research                           
 00203145          VERSION=LINUX x64     17:53:12  SEP 22, 2014 CP=     11.578

                                                                               


   NODE        X                   Y                   Z
      101   0.500000000000E-01   0.350000000000E-02  -0.300000000000E-01
      102   0.500000000000E-01   0.700000000000E-02  -0.300000000000E-01
      103   0.500000000000E-01   0.105000000000E-01  -0.300000000000E-01
      104   0.500000000000E-01   0.140000000000E-01  -0.300000000000E-01
      105   0.500000000000E-01   0.174006350946E-01  -0.300000000000E-01
      106   0.500000000000E-01   0.208012701892E-01  -0.300000000000E-01
      107   0.500000000000E-01   0.242019052838E-01  -0.300000000000E-01
      108   0.500000000000E-01   0.276025403784E-01  -0.300000000000E-01
      109   0.500000000000E-01   0.311025403784E-01  -0.300000000000E-01
      110   0.500000000000E-01   0.346025403784E-01  -0.300000000000E-01
      111   0.500000000000E-01   0.381025403784E-01  -0.300000000000E-01
      112   0.500000000000E-01   0.416025403784E-01  -0.300000000000E-01
      113   0.500000000000E-01   0.441025403784E-01  -0.300000000000E-01
      114   0.470000000000E-01    0.00000000000       0.300000000000E-01
      115   0.440000000000E-01    0.00000000000       0.300000000000E-01
      116   0.420000000000E-01    0.00000000000       0.300000000000E-01
      117    0.00000000000       0.832019052838E-01   0.300000000000E-01
      118    0.00000000000       0.798012701892E-01   0.300000000000E-01
      119    0.00000000000       0.764006350946E-01   0.300000000000E-01
      120    0.00000000000       0.730000000000E-01   0.300000000000E-01
      121    0.00000000000       0.695000000000E-01   0.300000000000E-01
      122    0.00000000000       0.660000000000E-01   0.300000000000E-01
      123    0.00000000000       0.625000000000E-01   0.300000000000E-01
      124    0.00000000000       0.590000000000E-01   0.300000000000E-01
      125    0.00000000000       0.555000000000E-01   0.300000000000E-01
      126    0.00000000000       0.520000000000E-01   0.300000000000E-01
      127    0.00000000000       0.485000000000E-01   0.300000000000E-01
      128    0.00000000000       0.450000000000E-01   0.300000000000E-01
      129    0.00000000000       0.425000000000E-01   0.300000000000E-01
      130   0.300000000000E-02   0.866025403784E-01  -0.300000000000E-01
      131   0.600000000000E-02   0.866025403784E-01  -0.300000000000E-01
      132   0.800000000000E-02   0.866025403784E-01  -0.300000000000E-01
      133   0.500000000000E-01    0.00000000000       0.335000000000E-01
      134   0.500000000000E-01    0.00000000000       0.370000000000E-01
      135   0.500000000000E-01    0.00000000000       0.414105755581E-01
      136   0.500000000000E-01    0.00000000000       0.458211511163E-01
      137   0.500000000000E-01    0.00000000000       0.517719503019E-01
      138   0.500000000000E-01    0.00000000000       0.577227494875E-01
      139   0.500000000000E-01    0.00000000000       0.659467807600E-01
      140   0.500000000000E-01    0.00000000000       0.741708120326E-01
      141   0.500000000000E-01    0.00000000000       0.855618727534E-01
      142   0.500000000000E-01    0.00000000000       0.969529334741E-01
      143   0.500000000000E-01    0.00000000000       0.112825388460    
      144   0.500000000000E-01    0.00000000000       0.128697843446    
      145   0.500000000000E-01    0.00000000000       0.150919280426    
      146   0.500000000000E-01    0.00000000000       0.173140717406    
      147   0.500000000000E-01    0.00000000000       0.202892393166    
      148   0.500000000000E-01    0.00000000000       0.232644068926    
      149   0.500000000000E-01    0.00000000000       0.264605654035    
      150   0.500000000000E-01    0.00000000000       0.296567239143    
1

 ***** ANSYS - ENGINEERING ANALYSIS SYSTEM  RELEASE 15.0      *****
 ANSYS Academic Research                           
 00203145          VERSION=LINUX x64     17:53:12  SEP 22, 2014 CP=     11.579

                                                                               


   NODE        X                   Y                   Z
      151   0.500000000000E-01    0.00000000000       0.328717005572    
      152   0.500000000000E-01    0.00000000000       0.360866772001    
      153   0.500000000000E-01    0.00000000000       0.393016904377    
      154   0.500000000000E-01    0.00000000000       0.425167036753    
      155   0.500000000000E-01    0.00000000000       0.462532591722    
      156   0.500000000000E-01    0.00000000000       0.499898146690    
      157   0.500000000000E-01    0.00000000000       0.532048279070    
      158   0.500000000000E-01    0.00000000000       0.564198411449    
      159   0.500000000000E-01    0.00000000000       0.596348543828    
      160   0.500000000000E-01    0.00000000000       0.628498676207    
      161   0.500000000000E-01    0.00000000000       0.660648808587    
      162   0.500000000000E-01    0.00000000000       0.692798940966    
      163   0.500000000000E-01    0.00000000000       0.724949073345    
      164   0.500000000000E-01    0.00000000000       0.757099205724    
      165   0.500000000000E-01    0.00000000000       0.789249338104    
      166   0.500000000000E-01    0.00000000000       0.821399470483    
      167   0.500000000000E-01    0.00000000000       0.853549602862    
      168   0.500000000000E-01    0.00000000000       0.885699735241    
      169   0.500000000000E-01    0.00000000000       0.917849867621    
      170   0.500000000000E-01    0.00000000000       0.950000000000    
      171   0.500000000000E-01    0.00000000000       0.975000000000    
      172   0.500000000000E-01   0.350000000000E-02   0.300000000000E-01
      173   0.500000000000E-01   0.700000000000E-02   0.300000000000E-01
      174   0.500000000000E-01   0.105000000000E-01   0.300000000000E-01
      175   0.500000000000E-01   0.140000000000E-01   0.300000000000E-01
      176   0.500000000000E-01   0.174006350946E-01   0.300000000000E-01
      177   0.500000000000E-01   0.208012701892E-01   0.300000000000E-01
      178   0.500000000000E-01   0.242019052838E-01   0.300000000000E-01
      179   0.500000000000E-01   0.276025403784E-01   0.300000000000E-01
      180   0.500000000000E-01   0.311025403784E-01   0.300000000000E-01
      181   0.500000000000E-01   0.346025403784E-01   0.300000000000E-01
      182   0.500000000000E-01   0.381025403784E-01   0.300000000000E-01
      183   0.500000000000E-01   0.416025403784E-01   0.300000000000E-01
      184   0.500000000000E-01   0.441025403784E-01   0.300000000000E-01
      185    0.00000000000       0.866025403784E-01   0.335000000000E-01
      186    0.00000000000       0.866025403784E-01   0.370000000000E-01
      187    0.00000000000       0.866025403784E-01   0.414105755581E-01
      188    0.00000000000       0.866025403784E-01   0.458211511163E-01
      189    0.00000000000       0.866025403784E-01   0.517719503019E-01
      190    0.00000000000       0.866025403784E-01   0.577227494875E-01
      191    0.00000000000       0.866025403784E-01   0.659467807600E-01
      192    0.00000000000       0.866025403784E-01   0.741708120326E-01
      193    0.00000000000       0.866025403784E-01   0.855618727534E-01
      194    0.00000000000       0.866025403784E-01   0.969529334741E-01
      195    0.00000000000       0.866025403784E-01   0.112825388460    
      196    0.00000000000       0.866025403784E-01   0.128697843446    
      197    0.00000000000       0.866025403784E-01   0.150919280426    
      198    0.00000000000       0.866025403784E-01   0.173140717406    
      199    0.00000000000       0.866025403784E-01   0.202892393166    
      200    0.00000000000       0.866025403784E-01   0.232644068926    
1

 ***** ANSYS - ENGINEERING ANALYSIS SYSTEM  RELEASE 15.0      *****
 ANSYS Academic Research                           
 00203145          VERSION=LINUX x64     17:53:12  SEP 22, 2014 CP=     11.580

                                                                               


   NODE        X                   Y                   Z
      201    0.00000000000       0.866025403784E-01   0.264605654035    
      202    0.00000000000       0.866025403784E-01   0.296567239143    
      203    0.00000000000       0.866025403784E-01   0.328717005572    
      204    0.00000000000       0.866025403784E-01   0.360866772001    
      205    0.00000000000       0.866025403784E-01   0.393016904377    
      206    0.00000000000       0.866025403784E-01   0.425167036753    
      207    0.00000000000       0.866025403784E-01   0.462532591722    
      208    0.00000000000       0.866025403784E-01   0.499898146690    
      209    0.00000000000       0.866025403784E-01   0.532048279070    
      210    0.00000000000       0.866025403784E-01   0.564198411449    
      211    0.00000000000       0.866025403784E-01   0.596348543828    
      212    0.00000000000       0.866025403784E-01   0.628498676207    
      213    0.00000000000       0.866025403784E-01   0.660648808587    
      214    0.00000000000       0.866025403784E-01   0.692798940966    
      215    0.00000000000       0.866025403784E-01   0.724949073345    
      216    0.00000000000       0.866025403784E-01   0.757099205724    
      217    0.00000000000       0.866025403784E-01   0.789249338104    
      218    0.00000000000       0.866025403784E-01   0.821399470483    
      219    0.00000000000       0.866025403784E-01   0.853549602862    
      220    0.00000000000       0.866025403784E-01   0.885699735241    
      221    0.00000000000       0.866025403784E-01   0.917849867621    
      222    0.00000000000       0.866025403784E-01   0.950000000000    
      223    0.00000000000       0.866025403784E-01   0.975000000000    
      224   0.300000000000E-02   0.866025403784E-01   0.300000000000E-01
      225   0.600000000000E-02   0.866025403784E-01   0.300000000000E-01
      226   0.800000000000E-02   0.866025403784E-01   0.300000000000E-01
      227   0.500000000000E-01    0.00000000000      -0.335000000000E-01
      228   0.500000000000E-01    0.00000000000      -0.370000000000E-01
      229   0.500000000000E-01    0.00000000000      -0.414105755581E-01
      230   0.500000000000E-01    0.00000000000      -0.458211511163E-01
      231   0.500000000000E-01    0.00000000000      -0.517719503019E-01
      232   0.500000000000E-01    0.00000000000      -0.577227494875E-01
      233   0.500000000000E-01    0.00000000000      -0.659467807600E-01
      234   0.500000000000E-01    0.00000000000      -0.741708120326E-01
      235   0.500000000000E-01    0.00000000000      -0.855618727534E-01
      236   0.500000000000E-01    0.00000000000      -0.969529334741E-01
      237   0.500000000000E-01    0.00000000000      -0.112825388460    
      238   0.500000000000E-01    0.00000000000      -0.128697843446    
      239   0.500000000000E-01    0.00000000000      -0.150919280426    
      240   0.500000000000E-01    0.00000000000      -0.173140717406    
      241   0.500000000000E-01    0.00000000000      -0.202892393166    
      242   0.500000000000E-01    0.00000000000      -0.232644068926    
      243   0.500000000000E-01    0.00000000000      -0.264605654035    
      244   0.500000000000E-01    0.00000000000      -0.296567239143    
      245   0.500000000000E-01    0.00000000000      -0.328717005572    
      246   0.500000000000E-01    0.00000000000      -0.360866772001    
      247   0.500000000000E-01    0.00000000000      -0.393016904377    
      248   0.500000000000E-01    0.00000000000      -0.425167036753    
      249   0.500000000000E-01    0.00000000000      -0.462532591722    
      250   0.500000000000E-01    0.00000000000      -0.499898146690    
1

 ***** ANSYS - ENGINEERING ANALYSIS SYSTEM  RELEASE 15.0      *****
 ANSYS Academic Research                           
 00203145          VERSION=LINUX x64     17:53:12  SEP 22, 2014 CP=     11.581

                                                                               


   NODE        X                   Y                   Z
      251   0.500000000000E-01    0.00000000000      -0.532048279070    
      252   0.500000000000E-01    0.00000000000      -0.564198411449    
      253   0.500000000000E-01    0.00000000000      -0.596348543828    
      254   0.500000000000E-01    0.00000000000      -0.628498676207    
      255   0.500000000000E-01    0.00000000000      -0.660648808587    
      256   0.500000000000E-01    0.00000000000      -0.692798940966    
      257   0.500000000000E-01    0.00000000000      -0.724949073345    
      258   0.500000000000E-01    0.00000000000      -0.757099205724    
      259   0.500000000000E-01    0.00000000000      -0.789249338104    
      260   0.500000000000E-01    0.00000000000      -0.821399470483    
      261   0.500000000000E-01    0.00000000000      -0.853549602862    
      262   0.500000000000E-01    0.00000000000      -0.885699735241    
      263   0.500000000000E-01    0.00000000000      -0.917849867621    
      264   0.500000000000E-01    0.00000000000      -0.950000000000    
      265   0.500000000000E-01    0.00000000000      -0.975000000000    
      266    0.00000000000       0.649519052838E-01   -1.00000000000    
      267    0.00000000000       0.433012701892E-01   -1.00000000000    
      268    0.00000000000       0.216506350946E-01   -1.00000000000    
      269   0.500000000000E-01   0.216506350946E-01   -1.00000000000    
      270   0.500000000000E-01   0.433012701892E-01   -1.00000000000    
      271   0.500000000000E-01   0.649519052838E-01   -1.00000000000    
      272   0.500000000000E-01   0.216506350946E-01    1.00000000000    
      273   0.500000000000E-01   0.433012701892E-01    1.00000000000    
      274   0.500000000000E-01   0.649519052838E-01    1.00000000000    
      275    0.00000000000       0.649519052838E-01    1.00000000000    
      276    0.00000000000       0.433012701892E-01    1.00000000000    
      277    0.00000000000       0.216506350946E-01    1.00000000000    
      278    0.00000000000        0.00000000000       0.975000000000    
      279    0.00000000000        0.00000000000       0.950000000000    
      280    0.00000000000        0.00000000000       0.920179006900    
      281    0.00000000000        0.00000000000       0.890358013800    
      282    0.00000000000        0.00000000000       0.860537020700    
      283    0.00000000000        0.00000000000       0.830716027601    
      284    0.00000000000        0.00000000000       0.798565895221    
      285    0.00000000000        0.00000000000       0.766415762842    
      286    0.00000000000        0.00000000000       0.734265630463    
      287    0.00000000000        0.00000000000       0.702115498084    
      288    0.00000000000        0.00000000000       0.669965365704    
      289    0.00000000000        0.00000000000       0.637815233325    
      290    0.00000000000        0.00000000000       0.605665100946    
      291    0.00000000000        0.00000000000       0.573514968567    
      292    0.00000000000        0.00000000000       0.541364836187    
      293    0.00000000000        0.00000000000       0.509214703808    
      294    0.00000000000        0.00000000000       0.477064571429    
      295    0.00000000000        0.00000000000       0.444914439050    
      296    0.00000000000        0.00000000000       0.412764306670    
      297    0.00000000000        0.00000000000       0.380614174291    
      298    0.00000000000        0.00000000000       0.348470569096    
      299    0.00000000000        0.00000000000       0.316326963901    
      300    0.00000000000        0.00000000000       0.284455993724    
1

 ***** ANSYS - ENGINEERING ANALYSIS SYSTEM  RELEASE 15.0      *****
 ANSYS Academic Research                           
 00203145          VERSION=LINUX x64     17:53:12  SEP 22, 2014 CP=     11.582

                                                                               


   NODE        X                   Y                   Z
      301    0.00000000000        0.00000000000       0.252585023547    
      302    0.00000000000        0.00000000000       0.222535289502    
      303    0.00000000000        0.00000000000       0.192485555457    
      304    0.00000000000        0.00000000000       0.167052018516    
      305    0.00000000000        0.00000000000       0.141618481575    
      306    0.00000000000        0.00000000000       0.122545875154    
      307    0.00000000000        0.00000000000       0.103473268732    
      308    0.00000000000        0.00000000000       0.891248062047E-01
      309    0.00000000000        0.00000000000       0.747763436773E-01
      310    0.00000000000        0.00000000000       0.634956550419E-01
      311    0.00000000000        0.00000000000       0.522149664066E-01
      312    0.00000000000        0.00000000000       0.432867891626E-01
      313    0.00000000000        0.00000000000       0.343586119187E-01
      314    0.00000000000        0.00000000000       0.276754360121E-01
      315    0.00000000000        0.00000000000       0.209922601055E-01
      316    0.00000000000        0.00000000000       0.157976666562E-01
      317    0.00000000000        0.00000000000       0.106030732068E-01
      318    0.00000000000        0.00000000000       0.607407278332E-02
      319    0.00000000000        0.00000000000       0.154507235984E-02
      320    0.00000000000        0.00000000000      -0.340289428916E-02
      321    0.00000000000        0.00000000000      -0.835086093816E-02
      322    0.00000000000        0.00000000000      -0.152053685294E-01
      323    0.00000000000        0.00000000000      -0.220598761207E-01
      324    0.00000000000        0.00000000000      -0.323077648429E-01
      325    0.00000000000        0.00000000000      -0.425556535652E-01
      326    0.00000000000        0.00000000000      -0.561731182040E-01
      327    0.00000000000        0.00000000000      -0.697905828428E-01
      328    0.00000000000        0.00000000000      -0.919435704911E-01
      329    0.00000000000        0.00000000000      -0.114096558139    
      330    0.00000000000        0.00000000000      -0.146246690519    
      331    0.00000000000        0.00000000000      -0.178396822898    
      332    0.00000000000        0.00000000000      -0.210546955277    
      333    0.00000000000        0.00000000000      -0.242697087656    
      334    0.00000000000        0.00000000000      -0.274847220036    
      335    0.00000000000        0.00000000000      -0.306997352415    
      336    0.00000000000        0.00000000000      -0.339147484794    
      337    0.00000000000        0.00000000000      -0.371297617173    
      338    0.00000000000        0.00000000000      -0.403447749553    
      339    0.00000000000        0.00000000000      -0.435597881932    
      340    0.00000000000        0.00000000000      -0.467748014311    
      341    0.00000000000        0.00000000000      -0.499898146690    
      342    0.00000000000        0.00000000000      -0.532048279070    
      343    0.00000000000        0.00000000000      -0.564198411449    
      344    0.00000000000        0.00000000000      -0.596348543828    
      345    0.00000000000        0.00000000000      -0.628498676207    
      346    0.00000000000        0.00000000000      -0.660648808587    
      347    0.00000000000        0.00000000000      -0.692798940966    
      348    0.00000000000        0.00000000000      -0.724949073345    
      349    0.00000000000        0.00000000000      -0.757099205724    
      350    0.00000000000        0.00000000000      -0.789249338104    
1

 ***** ANSYS - ENGINEERING ANALYSIS SYSTEM  RELEASE 15.0      *****
 ANSYS Academic Research                           
 00203145          VERSION=LINUX x64     17:53:12  SEP 22, 2014 CP=     11.582

                                                                               


   NODE        X                   Y                   Z
      351    0.00000000000        0.00000000000      -0.821399470483    
      352    0.00000000000        0.00000000000      -0.853549602862    
      353    0.00000000000        0.00000000000      -0.885699735241    
      354    0.00000000000        0.00000000000      -0.917849867621    
      355    0.00000000000        0.00000000000      -0.950000000000    
      356    0.00000000000        0.00000000000      -0.975000000000    
      357    0.00000000000       0.866025403784E-01  -0.335000000000E-01
      358    0.00000000000       0.866025403784E-01  -0.370000000000E-01
      359    0.00000000000       0.866025403784E-01  -0.414105755581E-01
      360    0.00000000000       0.866025403784E-01  -0.458211511163E-01
      361    0.00000000000       0.866025403784E-01  -0.517719503019E-01
      362    0.00000000000       0.866025403784E-01  -0.577227494875E-01
      363    0.00000000000       0.866025403784E-01  -0.659467807600E-01
      364    0.00000000000       0.866025403784E-01  -0.741708120326E-01
      365    0.00000000000       0.866025403784E-01  -0.855618727534E-01
      366    0.00000000000       0.866025403784E-01  -0.969529334741E-01
      367    0.00000000000       0.866025403784E-01  -0.112825388460    
      368    0.00000000000       0.866025403784E-01  -0.128697843446    
      369    0.00000000000       0.866025403784E-01  -0.150919280426    
      370    0.00000000000       0.866025403784E-01  -0.173140717406    
      371    0.00000000000       0.866025403784E-01  -0.202892393166    
      372    0.00000000000       0.866025403784E-01  -0.232644068926    
      373    0.00000000000       0.866025403784E-01  -0.264605654035    
      374    0.00000000000       0.866025403784E-01  -0.296567239143    
      375    0.00000000000       0.866025403784E-01  -0.328717005572    
      376    0.00000000000       0.866025403784E-01  -0.360866772001    
      377    0.00000000000       0.866025403784E-01  -0.393016904377    
      378    0.00000000000       0.866025403784E-01  -0.425167036753    
      379    0.00000000000       0.866025403784E-01  -0.462532591722    
      380    0.00000000000       0.866025403784E-01  -0.499898146690    
      381    0.00000000000       0.866025403784E-01  -0.532048279070    
      382    0.00000000000       0.866025403784E-01  -0.564198411449    
      383    0.00000000000       0.866025403784E-01  -0.596348543828    
      384    0.00000000000       0.866025403784E-01  -0.628498676207    
      385    0.00000000000       0.866025403784E-01  -0.660648808587    
      386    0.00000000000       0.866025403784E-01  -0.692798940966    
      387    0.00000000000       0.866025403784E-01  -0.724949073345    
      388    0.00000000000       0.866025403784E-01  -0.757099205724    
      389    0.00000000000       0.866025403784E-01  -0.789249338104    
      390    0.00000000000       0.866025403784E-01  -0.821399470483    
      391    0.00000000000       0.866025403784E-01  -0.853549602862    
      392    0.00000000000       0.866025403784E-01  -0.885699735241    
      393    0.00000000000       0.866025403784E-01  -0.917849867621    
      394    0.00000000000       0.866025403784E-01  -0.950000000000    
      395    0.00000000000       0.866025403784E-01  -0.975000000000    
      396   0.500000000000E-01   0.866025403784E-01  -0.975000000000    
      397   0.500000000000E-01   0.866025403784E-01  -0.950000000000    
      398   0.500000000000E-01   0.866025403784E-01  -0.920098307378    
      399   0.500000000000E-01   0.866025403784E-01  -0.890196614755    
      400   0.500000000000E-01   0.866025403784E-01  -0.860294922133    
1

 ***** ANSYS - ENGINEERING ANALYSIS SYSTEM  RELEASE 15.0      *****
 ANSYS Academic Research                           
 00203145          VERSION=LINUX x64     17:53:12  SEP 22, 2014 CP=     11.583

                                                                               


   NODE        X                   Y                   Z
      401   0.500000000000E-01   0.866025403784E-01  -0.830393229511    
      402   0.500000000000E-01   0.866025403784E-01  -0.798243097131    
      403   0.500000000000E-01   0.866025403784E-01  -0.766092964752    
      404   0.500000000000E-01   0.866025403784E-01  -0.733942832373    
      405   0.500000000000E-01   0.866025403784E-01  -0.701792699994    
      406   0.500000000000E-01   0.866025403784E-01  -0.669642567614    
      407   0.500000000000E-01   0.866025403784E-01  -0.637492435235    
      408   0.500000000000E-01   0.866025403784E-01  -0.605342302856    
      409   0.500000000000E-01   0.866025403784E-01  -0.573192170477    
      410   0.500000000000E-01   0.866025403784E-01  -0.541042038097    
      411   0.500000000000E-01   0.866025403784E-01  -0.508891905718    
      412   0.500000000000E-01   0.866025403784E-01  -0.476741773339    
      413   0.500000000000E-01   0.866025403784E-01  -0.444591640960    
      414   0.500000000000E-01   0.866025403784E-01  -0.412441508580    
      415   0.500000000000E-01   0.866025403784E-01  -0.380291376201    
      416   0.500000000000E-01   0.866025403784E-01  -0.348148785786    
      417   0.500000000000E-01   0.866025403784E-01  -0.316006195371    
      418   0.500000000000E-01   0.866025403784E-01  -0.284141210967    
      419   0.500000000000E-01   0.866025403784E-01  -0.252276226562    
      420   0.500000000000E-01   0.866025403784E-01  -0.222230068984    
      421   0.500000000000E-01   0.866025403784E-01  -0.192183911406    
      422   0.500000000000E-01   0.866025403784E-01  -0.166778573129    
      423   0.500000000000E-01   0.866025403784E-01  -0.141373234851    
      424   0.500000000000E-01   0.866025403784E-01  -0.122331475534    
      425   0.500000000000E-01   0.866025403784E-01  -0.103289716217    
      426   0.500000000000E-01   0.866025403784E-01  -0.889614893115E-01
      427   0.500000000000E-01   0.866025403784E-01  -0.746332624063E-01
      428   0.500000000000E-01   0.866025403784E-01  -0.633738890687E-01
      429   0.500000000000E-01   0.866025403784E-01  -0.521145157312E-01
      430   0.500000000000E-01   0.866025403784E-01  -0.432509629054E-01
      431   0.500000000000E-01   0.866025403784E-01  -0.343874100796E-01
      432   0.500000000000E-01   0.866025403784E-01  -0.276999007555E-01
      433   0.500000000000E-01   0.866025403784E-01  -0.210123914315E-01
      434   0.500000000000E-01   0.866025403784E-01  -0.158144022343E-01
      435   0.500000000000E-01   0.866025403784E-01  -0.106164130371E-01
      436   0.500000000000E-01   0.866025403784E-01  -0.608464300853E-02
      437   0.500000000000E-01   0.866025403784E-01  -0.155287297993E-02
      438   0.500000000000E-01   0.866025403784E-01   0.339600082000E-02
      439   0.500000000000E-01   0.866025403784E-01   0.834487461992E-02
      440   0.500000000000E-01   0.866025403784E-01   0.151979122645E-01
      441   0.500000000000E-01   0.866025403784E-01   0.220509499090E-01
      442   0.500000000000E-01   0.866025403784E-01   0.322994550126E-01
      443   0.500000000000E-01   0.866025403784E-01   0.425479601162E-01
      444   0.500000000000E-01   0.866025403784E-01   0.561643345484E-01
      445   0.500000000000E-01   0.866025403784E-01   0.697807089807E-01
      446   0.500000000000E-01   0.866025403784E-01   0.919386335601E-01
      447   0.500000000000E-01   0.866025403784E-01   0.114096558139    
      448   0.500000000000E-01   0.866025403784E-01   0.146246690519    
      449   0.500000000000E-01   0.866025403784E-01   0.178396822898    
      450   0.500000000000E-01   0.866025403784E-01   0.210546955277    
1

 ***** ANSYS - ENGINEERING ANALYSIS SYSTEM  RELEASE 15.0      *****
 ANSYS Academic Research                           
 00203145          VERSION=LINUX x64     17:53:12  SEP 22, 2014 CP=     11.584

                                                                               


   NODE        X                   Y                   Z
      451   0.500000000000E-01   0.866025403784E-01   0.242697087656    
      452   0.500000000000E-01   0.866025403784E-01   0.274847220036    
      453   0.500000000000E-01   0.866025403784E-01   0.306997352415    
      454   0.500000000000E-01   0.866025403784E-01   0.339147484794    
      455   0.500000000000E-01   0.866025403784E-01   0.371297617173    
      456   0.500000000000E-01   0.866025403784E-01   0.403447749553    
      457   0.500000000000E-01   0.866025403784E-01   0.435597881932    
      458   0.500000000000E-01   0.866025403784E-01   0.467748014311    
      459   0.500000000000E-01   0.866025403784E-01   0.499898146690    
      460   0.500000000000E-01   0.866025403784E-01   0.532048279070    
      461   0.500000000000E-01   0.866025403784E-01   0.564198411449    
      462   0.500000000000E-01   0.866025403784E-01   0.596348543828    
      463   0.500000000000E-01   0.866025403784E-01   0.628498676207    
      464   0.500000000000E-01   0.866025403784E-01   0.660648808587    
      465   0.500000000000E-01   0.866025403784E-01   0.692798940966    
      466   0.500000000000E-01   0.866025403784E-01   0.724949073345    
      467   0.500000000000E-01   0.866025403784E-01   0.757099205724    
      468   0.500000000000E-01   0.866025403784E-01   0.789249338104    
      469   0.500000000000E-01   0.866025403784E-01   0.821399470483    
      470   0.500000000000E-01   0.866025403784E-01   0.853549602862    
      471   0.500000000000E-01   0.866025403784E-01   0.885699735241    
      472   0.500000000000E-01   0.866025403784E-01   0.917849867621    
      473   0.500000000000E-01   0.866025403784E-01   0.950000000000    
      474   0.500000000000E-01   0.866025403784E-01   0.975000000000    
      475   0.349107522409E-01   0.249787469190E-02  -0.250000000000E-01
      476   0.346434641156E-01   0.498301054284E-02  -0.250000000000E-01
      477   0.339930660139E-01   0.833495428741E-02  -0.250000000000E-01
      478   0.330191498125E-01   0.116075727721E-01  -0.250000000000E-01
      479   0.317505096419E-01   0.147276996670E-01  -0.250000000000E-01
      480   0.301878302117E-01   0.177114343606E-01  -0.250000000000E-01
      481   0.283653715258E-01   0.205037971655E-01  -0.250000000000E-01
      482   0.262854560918E-01   0.231100583740E-01  -0.250000000000E-01
      483   0.239704720400E-01   0.255032639123E-01  -0.250000000000E-01
      484   0.214385486813E-01   0.276656579614E-01  -0.250000000000E-01
      485   0.186953137646E-01   0.295885998865E-01  -0.250000000000E-01
      486   0.157807985820E-01   0.312404608819E-01  -0.250000000000E-01
      487   0.132285489829E-01   0.324037882323E-01  -0.250000000000E-01
      488   0.105913417684E-01   0.333590089713E-01  -0.250000000000E-01
      489   0.781361430718E-02   0.341166738041E-01  -0.250000000000E-01
      490   0.498301052244E-02   0.346434641186E-01  -0.250000000000E-01
      491   0.249787467812E-02   0.349107522419E-01  -0.250000000000E-01
      492   0.148767477020E-01   0.191895226916E-02    0.00000000000    
      493   0.145090162913E-01   0.380636917002E-02    0.00000000000    
      494   0.140307339029E-01   0.530457407762E-02    0.00000000000    
      495   0.133982149616E-01   0.674446705405E-02    0.00000000000    
      496   0.128018714488E-01   0.781742204366E-02    0.00000000000    
      497   0.121197919255E-01   0.883802261153E-02    0.00000000000    
      498   0.111582691799E-01   0.100246211354E-01    0.00000000000    
      499   0.100810702916E-01   0.111072958804E-01    0.00000000000    
      500   0.880452532606E-02   0.121441481291E-01    0.00000000000    
1

 ***** ANSYS - ENGINEERING ANALYSIS SYSTEM  RELEASE 15.0      *****
 ANSYS Academic Research                           
 00203145          VERSION=LINUX x64     17:53:12  SEP 22, 2014 CP=     11.585

                                                                               


   NODE        X                   Y                   Z
      501   0.742214489241E-02   0.130350207210E-01    0.00000000000    
      502   0.566242418785E-02   0.138901746683E-01    0.00000000000    
      503   0.380636915949E-02   0.145090162941E-01    0.00000000000    
      504   0.191895226079E-02   0.148767477031E-01    0.00000000000    
      505   0.334382623811E-01    0.00000000000      -0.230478279764E-01
      506   0.318765247622E-01    0.00000000000      -0.210956559528E-01
      507   0.297421500164E-01    0.00000000000      -0.184276875205E-01
      508   0.276077752706E-01    0.00000000000      -0.157597190883E-01
      509   0.248393009364E-01    0.00000000000      -0.122991261705E-01
      510   0.220708266023E-01    0.00000000000      -0.883853325282E-02
      511   0.201037044009E-01    0.00000000000      -0.637963050113E-02
      512   0.181365821996E-01    0.00000000000      -0.392072774944E-02
      513   0.165682910998E-01    0.00000000000      -0.196036387472E-02
      514   0.150892477591E-01   0.841046656865E-01  -0.250000000000E-01
      515   0.153565358844E-01   0.816195298356E-01  -0.250000000000E-01
      516   0.160069339861E-01   0.782675860910E-01  -0.250000000000E-01
      517   0.169808501875E-01   0.749949676064E-01  -0.250000000000E-01
      518   0.182494903581E-01   0.718748407114E-01  -0.250000000000E-01
      519   0.198121697883E-01   0.688911060178E-01  -0.250000000000E-01
      520   0.216493194779E-01   0.660784346992E-01  -0.250000000000E-01
      521   0.237476712529E-01   0.634548572254E-01  -0.250000000000E-01
      522   0.260759363939E-01   0.610557366532E-01  -0.250000000000E-01
      523   0.286224787962E-01   0.588896988211E-01  -0.250000000000E-01
      524   0.313464966468E-01   0.569875642236E-01  -0.250000000000E-01
      525   0.342385999163E-01   0.553522881010E-01  -0.250000000000E-01
      526   0.367801771449E-01   0.541951911552E-01  -0.250000000000E-01
      527   0.394059132587E-01   0.532444030486E-01  -0.250000000000E-01
      528   0.421849820221E-01   0.524861880821E-01  -0.250000000000E-01
      529   0.450169894776E-01   0.519590762599E-01  -0.250000000000E-01
      530   0.475021253219E-01   0.516917881366E-01  -0.250000000000E-01
      531   0.349107522409E-01   0.249787469190E-02   0.250000000000E-01
      532   0.346434641156E-01   0.498301054284E-02   0.250000000000E-01
      533   0.339930660139E-01   0.833495428741E-02   0.250000000000E-01
      534   0.330191498125E-01   0.116075727721E-01   0.250000000000E-01
      535   0.317505096419E-01   0.147276996670E-01   0.250000000000E-01
      536   0.301878302117E-01   0.177114343606E-01   0.250000000000E-01
      537   0.283653715258E-01   0.205037971655E-01   0.250000000000E-01
      538   0.262854560918E-01   0.231100583740E-01   0.250000000000E-01
      539   0.239704720400E-01   0.255032639123E-01   0.250000000000E-01
      540   0.214385486813E-01   0.276656579614E-01   0.250000000000E-01
      541   0.186953137646E-01   0.295885998865E-01   0.250000000000E-01
      542   0.157807985820E-01   0.312404608819E-01   0.250000000000E-01
      543   0.132285489829E-01   0.324037882323E-01   0.250000000000E-01
      544   0.105913417684E-01   0.333590089713E-01   0.250000000000E-01
      545   0.781361430718E-02   0.341166738041E-01   0.250000000000E-01
      546   0.498301052244E-02   0.346434641186E-01   0.250000000000E-01
      547   0.249787467812E-02   0.349107522419E-01   0.250000000000E-01
      548   0.399319637404E-01   0.233201025599E-02   0.250000000000E-01
      549   0.397280864083E-01   0.465608744926E-02   0.250000000000E-01
      550   0.392173117469E-01   0.787416404093E-02   0.250000000000E-01
1

 ***** ANSYS - ENGINEERING ANALYSIS SYSTEM  RELEASE 15.0      *****
 ANSYS Academic Research                           
 00203145          VERSION=LINUX x64     17:53:12  SEP 22, 2014 CP=     11.586

                                                                               


   NODE        X                   Y                   Z
      551   0.384463079742E-01   0.110399910849E-01   0.250000000000E-01
      552   0.373380895854E-01   0.143480683756E-01   0.250000000000E-01
      553   0.359458328032E-01   0.175469970105E-01   0.250000000000E-01
      554   0.342749228735E-01   0.206210974978E-01   0.250000000000E-01
      555   0.323417662160E-01   0.235374203775E-01   0.250000000000E-01
      556   0.305380819049E-01   0.258345805766E-01   0.250000000000E-01
      557   0.285715872057E-01   0.279940065826E-01   0.250000000000E-01
      558   0.264527662658E-01   0.300041856561E-01   0.250000000000E-01
      559   0.241929153434E-01   0.318544007507E-01   0.250000000000E-01
      560   0.213166561422E-01   0.338467158069E-01   0.250000000000E-01
      561   0.182772953874E-01   0.355800572417E-01   0.250000000000E-01
      562   0.150981103026E-01   0.370411536712E-01   0.250000000000E-01
      563   0.118034056042E-01   0.382188384981E-01   0.250000000000E-01
      564   0.842727005968E-02   0.391021881656E-01   0.250000000000E-01
      565   0.498698931340E-02   0.396879066919E-01   0.250000000000E-01
      566   0.249837270353E-02   0.399219004286E-01   0.250000000000E-01
      567   0.399319637404E-01   0.233201025599E-02   0.300000000000E-01
      568   0.397280864083E-01   0.465608744926E-02   0.300000000000E-01
      569   0.392162182099E-01   0.787960844945E-02   0.300000000000E-01
      570   0.384432411593E-01   0.110506655533E-01   0.300000000000E-01
      571   0.373339621247E-01   0.143588046881E-01   0.300000000000E-01
      572   0.359406116672E-01   0.175576887144E-01   0.300000000000E-01
      573   0.342687789486E-01   0.206313060510E-01   0.300000000000E-01
      574   0.323347440615E-01   0.235470661968E-01   0.300000000000E-01
      575   0.305345147451E-01   0.258387965912E-01   0.300000000000E-01
      576   0.285722071975E-01   0.279933737849E-01   0.300000000000E-01
      577   0.264582374128E-01   0.299993612100E-01   0.300000000000E-01
      578   0.242038264135E-01   0.318461110176E-01   0.300000000000E-01
      579   0.213282498965E-01   0.338394112885E-01   0.300000000000E-01
      580   0.182894831177E-01   0.355737938276E-01   0.300000000000E-01
      581   0.151107781833E-01   0.370359876700E-01   0.300000000000E-01
      582   0.118164552433E-01   0.382148058412E-01   0.300000000000E-01
      583   0.843394591627E-02   0.391007487944E-01   0.300000000000E-01
      584   0.498698931340E-02   0.396879066919E-01   0.300000000000E-01
      585   0.249837270353E-02   0.399219004286E-01   0.300000000000E-01
      586   0.399319637404E-01   0.233201025599E-02  -0.300000000000E-01
      587   0.397280864083E-01   0.465608744926E-02  -0.300000000000E-01
      588   0.392162182099E-01   0.787960844945E-02  -0.300000000000E-01
      589   0.384432411593E-01   0.110506655533E-01  -0.300000000000E-01
      590   0.373339621247E-01   0.143588046881E-01  -0.300000000000E-01
      591   0.359406116672E-01   0.175576887144E-01  -0.300000000000E-01
      592   0.342687789486E-01   0.206313060510E-01  -0.300000000000E-01
      593   0.323347440615E-01   0.235470661968E-01  -0.300000000000E-01
      594   0.305345147451E-01   0.258387965912E-01  -0.300000000000E-01
      595   0.285722071975E-01   0.279933737849E-01  -0.300000000000E-01
      596   0.264582374128E-01   0.299993612100E-01  -0.300000000000E-01
      597   0.242038264135E-01   0.318461110176E-01  -0.300000000000E-01
      598   0.213282498965E-01   0.338394112885E-01  -0.300000000000E-01
      599   0.182894831177E-01   0.355737938276E-01  -0.300000000000E-01
      600   0.151107781833E-01   0.370359876700E-01  -0.300000000000E-01
1

 ***** ANSYS - ENGINEERING ANALYSIS SYSTEM  RELEASE 15.0      *****
 ANSYS Academic Research                           
 00203145          VERSION=LINUX x64     17:53:12  SEP 22, 2014 CP=     11.587

                                                                               


   NODE        X                   Y                   Z
      601   0.118164552433E-01   0.382148058412E-01  -0.300000000000E-01
      602   0.843394591627E-02   0.391007487944E-01  -0.300000000000E-01
      603   0.498698931340E-02   0.396879066919E-01  -0.300000000000E-01
      604   0.249837270353E-02   0.399219004286E-01  -0.300000000000E-01
      605   0.399319637404E-01   0.233201025599E-02  -0.250000000000E-01
      606   0.397280864083E-01   0.465608744926E-02  -0.250000000000E-01
      607   0.392173117469E-01   0.787416404093E-02  -0.250000000000E-01
      608   0.384463079742E-01   0.110399910849E-01  -0.250000000000E-01
      609   0.373380895854E-01   0.143480683756E-01  -0.250000000000E-01
      610   0.359458328032E-01   0.175469970105E-01  -0.250000000000E-01
      611   0.342749228735E-01   0.206210974978E-01  -0.250000000000E-01
      612   0.323417662160E-01   0.235374203775E-01  -0.250000000000E-01
      613   0.305380819049E-01   0.258345805766E-01  -0.250000000000E-01
      614   0.285715872057E-01   0.279940065826E-01  -0.250000000000E-01
      615   0.264527662658E-01   0.300041856561E-01  -0.250000000000E-01
      616   0.241929153434E-01   0.318544007507E-01  -0.250000000000E-01
      617   0.213166561422E-01   0.338467158069E-01  -0.250000000000E-01
      618   0.182772953874E-01   0.355800572417E-01  -0.250000000000E-01
      619   0.150981103026E-01   0.370411536712E-01  -0.250000000000E-01
      620   0.118034056042E-01   0.382188384981E-01  -0.250000000000E-01
      621   0.842727005968E-02   0.391021881656E-01  -0.250000000000E-01
      622   0.498698931340E-02   0.396879066919E-01  -0.250000000000E-01
      623   0.249837270353E-02   0.399219004286E-01  -0.250000000000E-01
      624   0.165682910998E-01    0.00000000000       0.196036387472E-02
      625   0.181365821996E-01    0.00000000000       0.392072774944E-02
      626   0.201037044009E-01    0.00000000000       0.637963050113E-02
      627   0.220708266023E-01    0.00000000000       0.883853325282E-02
      628   0.248393009364E-01    0.00000000000       0.122991261705E-01
      629   0.276077752706E-01    0.00000000000       0.157597190883E-01
      630   0.297421500164E-01    0.00000000000       0.184276875205E-01
      631   0.318765247622E-01    0.00000000000       0.210956559528E-01
      632   0.334382623811E-01    0.00000000000       0.230478279764E-01
      633   0.351232522980E-01   0.846835881093E-01    0.00000000000    
      634   0.354909837087E-01   0.827961712084E-01    0.00000000000    
      635   0.359692660971E-01   0.812979663008E-01    0.00000000000    
      636   0.366017850384E-01   0.798580733244E-01    0.00000000000    
      637   0.371981285512E-01   0.787851183348E-01    0.00000000000    
      638   0.378802080745E-01   0.777645177669E-01    0.00000000000    
      639   0.388417308201E-01   0.765779192431E-01    0.00000000000    
      640   0.399189297084E-01   0.754952444980E-01    0.00000000000    
      641   0.411954746739E-01   0.744583922493E-01    0.00000000000    
      642   0.425778551076E-01   0.735675196575E-01    0.00000000000    
      643   0.443375758122E-01   0.727123657101E-01    0.00000000000    
      644   0.461936308405E-01   0.720935240844E-01    0.00000000000    
      645   0.480810477392E-01   0.717257926754E-01    0.00000000000    
      646   0.165617376189E-01   0.866025403784E-01  -0.230478279764E-01
      647   0.181234752378E-01   0.866025403784E-01  -0.210956559528E-01
      648   0.202578499836E-01   0.866025403784E-01  -0.184276875205E-01
      649   0.223922247294E-01   0.866025403784E-01  -0.157597190883E-01
      650   0.251606990636E-01   0.866025403784E-01  -0.122991261705E-01
1

 ***** ANSYS - ENGINEERING ANALYSIS SYSTEM  RELEASE 15.0      *****
 ANSYS Academic Research                           
 00203145          VERSION=LINUX x64     17:53:12  SEP 22, 2014 CP=     11.588

                                                                               


   NODE        X                   Y                   Z
      651   0.279291733977E-01   0.866025403784E-01  -0.883853325282E-02
      652   0.298962955991E-01   0.866025403784E-01  -0.637963050113E-02
      653   0.318634178004E-01   0.866025403784E-01  -0.392072774944E-02
      654   0.334317089002E-01   0.866025403784E-01  -0.196036387472E-02
      655    0.00000000000       0.334382623811E-01  -0.230478279764E-01
      656    0.00000000000       0.318765247622E-01  -0.210956559528E-01
      657    0.00000000000       0.296922661152E-01  -0.183653326439E-01
      658    0.00000000000       0.275080074681E-01  -0.156350093351E-01
      659    0.00000000000       0.247672429900E-01  -0.122090537375E-01
      660    0.00000000000       0.220264785119E-01  -0.878309813986E-02
      661    0.00000000000       0.200815303544E-01  -0.635191294297E-02
      662    0.00000000000       0.181365821969E-01  -0.392072774607E-02
      663    0.00000000000       0.165682910984E-01  -0.196036387304E-02
      664    0.00000000000       0.165682910984E-01   0.196036387304E-02
      665    0.00000000000       0.181365821969E-01   0.392072774607E-02
      666    0.00000000000       0.200815303544E-01   0.635191294297E-02
      667    0.00000000000       0.220264785119E-01   0.878309813986E-02
      668    0.00000000000       0.247672429900E-01   0.122090537375E-01
      669    0.00000000000       0.275080074681E-01   0.156350093351E-01
      670    0.00000000000       0.296922661152E-01   0.183653326439E-01
      671    0.00000000000       0.318765247622E-01   0.210956559528E-01
      672    0.00000000000       0.334382623811E-01   0.230478279764E-01
      673   0.150892477591E-01   0.841046656865E-01   0.250000000000E-01
      674   0.153565358844E-01   0.816195298356E-01   0.250000000000E-01
      675   0.160069339861E-01   0.782675860910E-01   0.250000000000E-01
      676   0.169808501875E-01   0.749949676064E-01   0.250000000000E-01
      677   0.182494903581E-01   0.718748407114E-01   0.250000000000E-01
      678   0.198121697883E-01   0.688911060178E-01   0.250000000000E-01
      679   0.216493194779E-01   0.660784346992E-01   0.250000000000E-01
      680   0.237476712529E-01   0.634548572254E-01   0.250000000000E-01
      681   0.260759363939E-01   0.610557366532E-01   0.250000000000E-01
      682   0.286224787962E-01   0.588896988211E-01   0.250000000000E-01
      683   0.313464966468E-01   0.569875642236E-01   0.250000000000E-01
      684   0.342385999163E-01   0.553522881010E-01   0.250000000000E-01
      685   0.367801771449E-01   0.541951911552E-01   0.250000000000E-01
      686   0.394059132587E-01   0.532444030486E-01   0.250000000000E-01
      687   0.421849820221E-01   0.524861880821E-01   0.250000000000E-01
      688   0.450169894776E-01   0.519590762599E-01   0.250000000000E-01
      689   0.475021253219E-01   0.516917881366E-01   0.250000000000E-01
      690   0.100680362596E-01   0.842705301225E-01   0.250000000000E-01
      691   0.102719135917E-01   0.819464529292E-01   0.250000000000E-01
      692   0.107826882531E-01   0.787283763375E-01   0.250000000000E-01
      693   0.115536920258E-01   0.755625492935E-01   0.250000000000E-01
      694   0.126619104146E-01   0.722544720028E-01   0.250000000000E-01
      695   0.140541671968E-01   0.690555433680E-01   0.250000000000E-01
      696   0.157250771265E-01   0.659814428806E-01   0.250000000000E-01
      697   0.176582337840E-01   0.630651200009E-01   0.250000000000E-01
      698   0.194619180951E-01   0.607679598018E-01   0.250000000000E-01
      699   0.214284127943E-01   0.586085337958E-01   0.250000000000E-01
      700   0.235472337342E-01   0.565983547224E-01   0.250000000000E-01
1

 ***** ANSYS - ENGINEERING ANALYSIS SYSTEM  RELEASE 15.0      *****
 ANSYS Academic Research                           
 00203145          VERSION=LINUX x64     17:53:12  SEP 22, 2014 CP=     11.589

                                                                               


   NODE        X                   Y                   Z
      701   0.258070846566E-01   0.547481396277E-01   0.250000000000E-01
      702   0.286833438578E-01   0.527558245715E-01   0.250000000000E-01
      703   0.317227046126E-01   0.510224831368E-01   0.250000000000E-01
      704   0.349018896974E-01   0.495613867073E-01   0.250000000000E-01
      705   0.381965943958E-01   0.483837018803E-01   0.250000000000E-01
      706   0.415727299403E-01   0.475003522128E-01   0.250000000000E-01
      707   0.450130106866E-01   0.469146336865E-01   0.250000000000E-01
      708   0.475016272965E-01   0.466806399498E-01   0.250000000000E-01
      709   0.100680362596E-01   0.842705301225E-01   0.300000000000E-01
      710   0.102719135917E-01   0.819464529292E-01   0.300000000000E-01
      711   0.107837817901E-01   0.787229319290E-01   0.300000000000E-01
      712   0.115567588407E-01   0.755518748251E-01   0.300000000000E-01
      713   0.126660378753E-01   0.722437356904E-01   0.300000000000E-01
      714   0.140593883328E-01   0.690448516641E-01   0.300000000000E-01
      715   0.157312210514E-01   0.659712343274E-01   0.300000000000E-01
      716   0.176652559385E-01   0.630554741817E-01   0.300000000000E-01
      717   0.194654852549E-01   0.607637437873E-01   0.300000000000E-01
      718   0.214277928025E-01   0.586091665935E-01   0.300000000000E-01
      719   0.235417625872E-01   0.566031791685E-01   0.300000000000E-01
      720   0.257961735865E-01   0.547564293608E-01   0.300000000000E-01
      721   0.286717501035E-01   0.527631290899E-01   0.300000000000E-01
      722   0.317105168823E-01   0.510287465509E-01   0.300000000000E-01
      723   0.348892218167E-01   0.495665527084E-01   0.300000000000E-01
      724   0.381835447567E-01   0.483877345372E-01   0.300000000000E-01
      725   0.415660540837E-01   0.475017915841E-01   0.300000000000E-01
      726   0.450130106866E-01   0.469146336865E-01   0.300000000000E-01
      727   0.475016272965E-01   0.466806399498E-01   0.300000000000E-01
      728   0.100680362596E-01   0.842705301225E-01  -0.300000000000E-01
      729   0.102719135917E-01   0.819464529292E-01  -0.300000000000E-01
      730   0.107837817901E-01   0.787229319290E-01  -0.300000000000E-01
      731   0.115567588407E-01   0.755518748251E-01  -0.300000000000E-01
      732   0.126660378753E-01   0.722437356904E-01  -0.300000000000E-01
      733   0.140593883328E-01   0.690448516641E-01  -0.300000000000E-01
      734   0.157312210514E-01   0.659712343274E-01  -0.300000000000E-01
      735   0.176652559385E-01   0.630554741817E-01  -0.300000000000E-01
      736   0.194654852549E-01   0.607637437873E-01  -0.300000000000E-01
      737   0.214277928025E-01   0.586091665935E-01  -0.300000000000E-01
      738   0.235417625872E-01   0.566031791685E-01  -0.300000000000E-01
      739   0.257961735865E-01   0.547564293608E-01  -0.300000000000E-01
      740   0.286717501035E-01   0.527631290899E-01  -0.300000000000E-01
      741   0.317105168823E-01   0.510287465509E-01  -0.300000000000E-01
      742   0.348892218167E-01   0.495665527084E-01  -0.300000000000E-01
      743   0.381835447567E-01   0.483877345372E-01  -0.300000000000E-01
      744   0.415660540837E-01   0.475017915841E-01  -0.300000000000E-01
      745   0.450130106866E-01   0.469146336865E-01  -0.300000000000E-01
      746   0.475016272965E-01   0.466806399498E-01  -0.300000000000E-01
      747   0.100680362596E-01   0.842705301225E-01  -0.250000000000E-01
      748   0.102719135917E-01   0.819464529292E-01  -0.250000000000E-01
      749   0.107826882531E-01   0.787283763375E-01  -0.250000000000E-01
      750   0.115536920258E-01   0.755625492935E-01  -0.250000000000E-01
1

 ***** ANSYS - ENGINEERING ANALYSIS SYSTEM  RELEASE 15.0      *****
 ANSYS Academic Research                           
 00203145          VERSION=LINUX x64     17:53:12  SEP 22, 2014 CP=     11.590

                                                                               


   NODE        X                   Y                   Z
      751   0.126619104146E-01   0.722544720028E-01  -0.250000000000E-01
      752   0.140541671968E-01   0.690555433680E-01  -0.250000000000E-01
      753   0.157250771265E-01   0.659814428806E-01  -0.250000000000E-01
      754   0.176582337840E-01   0.630651200009E-01  -0.250000000000E-01
      755   0.194619180951E-01   0.607679598018E-01  -0.250000000000E-01
      756   0.214284127943E-01   0.586085337958E-01  -0.250000000000E-01
      757   0.235472337342E-01   0.565983547224E-01  -0.250000000000E-01
      758   0.258070846566E-01   0.547481396277E-01  -0.250000000000E-01
      759   0.286833438578E-01   0.527558245715E-01  -0.250000000000E-01
      760   0.317227046126E-01   0.510224831368E-01  -0.250000000000E-01
      761   0.349018896974E-01   0.495613867073E-01  -0.250000000000E-01
      762   0.381965943958E-01   0.483837018803E-01  -0.250000000000E-01
      763   0.415727299403E-01   0.475003522128E-01  -0.250000000000E-01
      764   0.450130106866E-01   0.469146336865E-01  -0.250000000000E-01
      765   0.475016272965E-01   0.466806399498E-01  -0.250000000000E-01
      766   0.334317089002E-01   0.866025403784E-01   0.196036387472E-02
      767   0.318634178004E-01   0.866025403784E-01   0.392072774944E-02
      768   0.298962955991E-01   0.866025403784E-01   0.637963050113E-02
      769   0.279291733977E-01   0.866025403784E-01   0.883853325282E-02
      770   0.251606990636E-01   0.866025403784E-01   0.122991261705E-01
      771   0.223922247294E-01   0.866025403784E-01   0.157597190883E-01
      772   0.202578499836E-01   0.866025403784E-01   0.184276875205E-01
      773   0.181234752378E-01   0.866025403784E-01   0.210956559528E-01
      774   0.165617376189E-01   0.866025403784E-01   0.230478279764E-01
      775    0.00000000000       0.831025403784E-01  -0.250000000000E-01
      776    0.00000000000       0.796025403784E-01  -0.250000000000E-01
      777    0.00000000000       0.761025403784E-01  -0.250000000000E-01
      778    0.00000000000       0.726025403784E-01  -0.250000000000E-01
      779    0.00000000000       0.692019052838E-01  -0.250000000000E-01
      780    0.00000000000       0.658012701892E-01  -0.250000000000E-01
      781    0.00000000000       0.624006350946E-01  -0.250000000000E-01
      782    0.00000000000       0.590000000000E-01  -0.250000000000E-01
      783    0.00000000000       0.555000000000E-01  -0.250000000000E-01
      784    0.00000000000       0.520000000000E-01  -0.250000000000E-01
      785    0.00000000000       0.485000000000E-01  -0.250000000000E-01
      786    0.00000000000       0.450000000000E-01  -0.250000000000E-01
      787    0.00000000000       0.425000000000E-01  -0.250000000000E-01
      788   0.470000000000E-01    0.00000000000      -0.250000000000E-01
      789   0.440000000000E-01    0.00000000000      -0.250000000000E-01
      790   0.420000000000E-01    0.00000000000      -0.250000000000E-01
      791   0.470000000000E-01    0.00000000000       0.250000000000E-01
      792   0.440000000000E-01    0.00000000000       0.250000000000E-01
      793   0.420000000000E-01    0.00000000000       0.250000000000E-01
      794    0.00000000000       0.831025403784E-01   0.250000000000E-01
      795    0.00000000000       0.796025403784E-01   0.250000000000E-01
      796    0.00000000000       0.761025403784E-01   0.250000000000E-01
      797    0.00000000000       0.726025403784E-01   0.250000000000E-01
      798    0.00000000000       0.692019052838E-01   0.250000000000E-01
      799    0.00000000000       0.658012701892E-01   0.250000000000E-01
      800    0.00000000000       0.624006350946E-01   0.250000000000E-01
1

 ***** ANSYS - ENGINEERING ANALYSIS SYSTEM  RELEASE 15.0      *****
 ANSYS Academic Research                           
 00203145          VERSION=LINUX x64     17:53:12  SEP 22, 2014 CP=     11.591

                                                                               


   NODE        X                   Y                   Z
      801    0.00000000000       0.590000000000E-01   0.250000000000E-01
      802    0.00000000000       0.555000000000E-01   0.250000000000E-01
      803    0.00000000000       0.520000000000E-01   0.250000000000E-01
      804    0.00000000000       0.485000000000E-01   0.250000000000E-01
      805    0.00000000000       0.450000000000E-01   0.250000000000E-01
      806    0.00000000000       0.425000000000E-01   0.250000000000E-01
      807   0.500000000000E-01   0.350000000000E-02   0.250000000000E-01
      808   0.500000000000E-01   0.700000000000E-02   0.250000000000E-01
      809   0.500000000000E-01   0.105000000000E-01   0.250000000000E-01
      810   0.500000000000E-01   0.140000000000E-01   0.250000000000E-01
      811   0.500000000000E-01   0.174006350946E-01   0.250000000000E-01
      812   0.500000000000E-01   0.208012701892E-01   0.250000000000E-01
      813   0.500000000000E-01   0.242019052838E-01   0.250000000000E-01
      814   0.500000000000E-01   0.276025403784E-01   0.250000000000E-01
      815   0.500000000000E-01   0.311025403784E-01   0.250000000000E-01
      816   0.500000000000E-01   0.346025403784E-01   0.250000000000E-01
      817   0.500000000000E-01   0.381025403784E-01   0.250000000000E-01
      818   0.500000000000E-01   0.416025403784E-01   0.250000000000E-01
      819   0.500000000000E-01   0.441025403784E-01   0.250000000000E-01
      820   0.300000000000E-02   0.866025403784E-01   0.250000000000E-01
      821   0.600000000000E-02   0.866025403784E-01   0.250000000000E-01
      822   0.800000000000E-02   0.866025403784E-01   0.250000000000E-01
      823   0.300000000000E-02   0.866025403784E-01  -0.250000000000E-01
      824   0.600000000000E-02   0.866025403784E-01  -0.250000000000E-01
      825   0.800000000000E-02   0.866025403784E-01  -0.250000000000E-01
      826   0.500000000000E-01   0.350000000000E-02  -0.250000000000E-01
      827   0.500000000000E-01   0.700000000000E-02  -0.250000000000E-01
      828   0.500000000000E-01   0.105000000000E-01  -0.250000000000E-01
      829   0.500000000000E-01   0.140000000000E-01  -0.250000000000E-01
      830   0.500000000000E-01   0.174006350946E-01  -0.250000000000E-01
      831   0.500000000000E-01   0.208012701892E-01  -0.250000000000E-01
      832   0.500000000000E-01   0.242019052838E-01  -0.250000000000E-01
      833   0.500000000000E-01   0.276025403784E-01  -0.250000000000E-01
      834   0.500000000000E-01   0.311025403784E-01  -0.250000000000E-01
      835   0.500000000000E-01   0.346025403784E-01  -0.250000000000E-01
      836   0.500000000000E-01   0.381025403784E-01  -0.250000000000E-01
      837   0.500000000000E-01   0.416025403784E-01  -0.250000000000E-01
      838   0.500000000000E-01   0.441025403784E-01  -0.250000000000E-01
      839   0.324814371331E-01   0.769682851185E-01   0.624121468554E-02
      840   0.263437575228E-01   0.710459725446E-01   0.166412200205E-01
      841   0.328025851364E-01   0.795827406461E-01   0.446868409387E-02
      842   0.370588914092E-01   0.727751634909E-01   0.492318641252E-02
      843   0.474153375365E-01   0.570252256076E-01   0.183625406092E-01
      844   0.474153193064E-01   0.532715048865E-01   0.230388760104E-01
      845   0.169259996096E-01   0.840790193789E-01   0.227126650596E-01
      846   0.360859245455E-01   0.597049391152E-01   0.191042114870E-01
      847   0.321829296691E-01   0.826635242794E-01   0.405912108552E-02
      848   0.464351585721E-01   0.686947819043E-01   0.407391522523E-02
      849   0.452966490466E-01   0.701719966899E-01   0.261309156919E-02
      850   0.485096230352E-01   0.691518429839E-01   0.314278073979E-02
1

 ***** ANSYS - ENGINEERING ANALYSIS SYSTEM  RELEASE 15.0      *****
 ANSYS Academic Research                           
 00203145          VERSION=LINUX x64     17:53:12  SEP 22, 2014 CP=     11.592

                                                                               


   NODE        X                   Y                   Z
      851   0.466083181774E-01   0.709993884077E-01   0.120940634320E-02
      852   0.485096337542E-01   0.707239581838E-01   0.118546478873E-02
      853   0.337864887797E-01   0.826752615624E-01   0.210296235665E-02
      854   0.344720167271E-01   0.834891558310E-01   0.104628389460E-02
      855   0.326450501885E-01   0.853933390506E-01   0.299628024262E-02
      856   0.342158900529E-01   0.853933379748E-01   0.103794998200E-02
      857   0.334355351984E-01   0.669363024452E-01   0.133908620522E-01
      858   0.358371060723E-01   0.638649878774E-01   0.147346946880E-01
      859   0.379522722051E-01   0.607679290148E-01   0.168821240537E-01
      860   0.320992472328E-01   0.651331295324E-01   0.161913023805E-01
      861   0.357659159093E-01   0.692518257721E-01   0.930286436057E-02
      862   0.290419494410E-01   0.718553339807E-01   0.132831854238E-01
      863   0.322274887335E-01   0.707610998946E-01   0.110098038814E-01
      864   0.393032318374E-01   0.625946016085E-01   0.141038899215E-01
      865   0.293948868284E-01   0.657797278175E-01   0.178679645923E-01
      866   0.273970026331E-01   0.679385344356E-01   0.178910077603E-01
      867   0.335773270358E-01   0.607068897541E-01   0.195801633130E-01
      868   0.316702577591E-01   0.625507044123E-01   0.190502617377E-01
      869   0.257394854854E-01   0.746261548275E-01   0.150695204213E-01
      870   0.265871940463E-01   0.780956563436E-01   0.123879631290E-01
      871   0.239580651863E-01   0.773214700000E-01   0.158079367740E-01
      872   0.389199101874E-01   0.671148829718E-01   0.927167635999E-02
      873   0.405572171718E-01   0.645704555042E-01   0.112129696314E-01
      874   0.296002214014E-01   0.782545462474E-01   0.880222237192E-02
      875   0.313899883860E-01   0.741868255743E-01   0.921433292973E-02
      876   0.427948369209E-01   0.617461234366E-01   0.135995517304E-01
      877   0.208606608749E-01   0.776509720094E-01   0.193541266817E-01
      878   0.239160894672E-01   0.705925754810E-01   0.195067266287E-01
      879   0.268562538606E-01   0.652391821479E-01   0.206205565003E-01
      880   0.307481987118E-01   0.611958304470E-01   0.210960467452E-01
      881   0.263783679016E-01   0.837222924800E-01   0.109957279219E-01
      882   0.279662515670E-01   0.810058081751E-01   0.966680514470E-02
      883   0.219874571373E-01   0.812131806761E-01   0.169078303908E-01
      884   0.235987088003E-01   0.837222440699E-01   0.144474275132E-01
      885   0.423398867457E-01   0.660927024811E-01   0.861703039369E-02
      886   0.432229307570E-01   0.679251471826E-01   0.608614063074E-02
      887   0.374788771705E-01   0.706538771916E-01   0.659568424680E-02
      888   0.325498044324E-01   0.811652204820E-01   0.409710638827E-02
      889   0.447096515450E-01   0.689631217650E-01   0.426958662597E-02
      890   0.449541206352E-01   0.656163522723E-01   0.823034556019E-02
      891   0.479031112889E-01   0.679060197985E-01   0.476717537455E-02
      892   0.479058700149E-01   0.659538043935E-01   0.719331796704E-02
      893   0.469847530411E-01   0.640656887322E-01   0.967208088424E-02
      894   0.470177229012E-01   0.613056116767E-01   0.130901421763E-01
      895   0.457334859064E-01   0.592205863527E-01   0.158904421517E-01
      896   0.179050854521E-01   0.782603111351E-01   0.227017100179E-01
      897   0.171686394829E-01   0.815923640354E-01   0.227643066528E-01
      898   0.214354130951E-01   0.713591264069E-01   0.217217743958E-01
      899   0.200083192572E-01   0.744199699424E-01   0.217144121460E-01
      900   0.243214247937E-01   0.654430608244E-01   0.228416307616E-01
1

 ***** ANSYS - ENGINEERING ANALYSIS SYSTEM  RELEASE 15.0      *****
 ANSYS Academic Research                           
 00203145          VERSION=LINUX x64     17:53:12  SEP 22, 2014 CP=     11.593

                                                                               


   NODE        X                   Y                   Z
      901   0.223322806082E-01   0.681484391442E-01   0.228217855926E-01
      902   0.287626169951E-01   0.610062224398E-01   0.228244424367E-01
      903   0.263099984848E-01   0.632758226351E-01   0.228085417752E-01
      904   0.306270545679E-01   0.591042153763E-01   0.232966424908E-01
      905   0.293080646060E-01   0.838598841652E-01   0.734113694863E-02
      906   0.312867828891E-01   0.838598701639E-01   0.489142070029E-02
      907   0.184906434167E-01   0.840790054563E-01   0.207628100431E-01
      908   0.206294864664E-01   0.840790264542E-01   0.180984054046E-01
      909   0.431737559301E-01   0.573599310679E-01   0.187859787277E-01
      910   0.396222777406E-01   0.585802293708E-01   0.186027741921E-01
      911   0.351609436019E-01   0.583454250479E-01   0.211456091254E-01
      912   0.334345878636E-01   0.573304048695E-01   0.232929615933E-01
      913   0.474153084800E-01   0.548362428695E-01   0.210890960553E-01
      914   0.412483811783E-01   0.561371962052E-01   0.208718064091E-01
      915   0.401461613535E-01   0.705446848056E-01   0.480024089806E-02
      916   0.421289544556E-01   0.695384772011E-01   0.473987847459E-02
      917   0.385609473148E-01   0.553326014538E-01   0.228707018556E-01
      918   0.359794700145E-01   0.563954095585E-01   0.228779280773E-01
      919   0.449288452728E-01   0.535155722970E-01   0.230916670894E-01
      920   0.421107719327E-01   0.541069501484E-01   0.230494337562E-01
      921   0.346342253904E-01   0.755376889235E-01   0.491887351669E-02
      922   0.359161916060E-01   0.741971298576E-01   0.471033451219E-02
      923   0.384292046839E-01   0.739049075961E-01   0.272357324000E-02
      924   0.415843255813E-01   0.714746524952E-01   0.288896109051E-02
      925   0.344563219278E-01   0.796108146517E-01   0.255471473089E-02
      926   0.359989355690E-01   0.766626035253E-01   0.271334629395E-02
      927   0.348268340805E-01   0.819876846640E-01   0.107430079500E-02
      928   0.353677469961E-01   0.805119092826E-01   0.106155814466E-02
      929   0.375713070894E-01   0.765356030139E-01   0.124279695950E-02
      930   0.385891160842E-01   0.753979602416E-01   0.124026668556E-02
      931   0.397797578867E-01   0.740250531388E-01   0.150796657024E-02
      932   0.411078816776E-01   0.730568076035E-01   0.150449968022E-02
      933   0.430770779160E-01   0.720257710488E-01   0.142149343250E-02
      934   0.448892338212E-01   0.712925737562E-01   0.142559668061E-02
      935   0.357066104573E-01   0.789647946134E-01   0.150756590881E-02
      936   0.363335539060E-01   0.779099861242E-01   0.149584248607E-02
      937   0.348159052760E-01   0.780739041649E-01   0.301918579990E-02
      938   0.435964669199E-01   0.705264840920E-01   0.288059254388E-02
      939   0.396565990324E-01   0.725745680887E-01   0.303624674175E-02
      940   0.372796101039E-01   0.753206247721E-01   0.250330631840E-02
      941   0.341751065365E-01   0.811829768814E-01   0.215898885754E-02
      942   0.345528554124E-01   0.730737090956E-01   0.691745117216E-02
      943   0.448409894692E-01   0.550739500193E-01   0.211848571053E-01
      944   0.377303829941E-01   0.574601683479E-01   0.207749396947E-01
      945   0.406729779158E-01   0.685755103211E-01   0.662121750275E-02
      946   0.326556400889E-01   0.593528118236E-01   0.216266355519E-01
      947   0.415278162480E-01   0.597371317778E-01   0.164620379986E-01
      948   0.189823837495E-01   0.815654486093E-01   0.205299410353E-01
      949   0.309314857980E-01   0.811496400794E-01   0.604107562287E-02
      950   0.289209110119E-01   0.631446283255E-01   0.206716317214E-01
1

 ***** ANSYS - ENGINEERING ANALYSIS SYSTEM  RELEASE 15.0      *****
 ANSYS Academic Research                           
 00203145          VERSION=LINUX x64     17:53:12  SEP 22, 2014 CP=     11.594

                                                                               


   NODE        X                   Y                   Z
      951   0.249145724304E-01   0.674472529359E-01   0.207033687043E-01
      952   0.230920563190E-01   0.738449732857E-01   0.184738362659E-01
      953   0.440647166943E-01   0.637649784385E-01   0.107452809595E-01
      954   0.458447676519E-01   0.674728959905E-01   0.571966394452E-02
      955   0.250102358235E-01   0.808643191010E-01   0.133001437454E-01
      956   0.283914502114E-01   0.754095808357E-01   0.116692519039E-01
      957   0.371755693170E-01   0.656696048179E-01   0.119362605025E-01
      958   0.344990441654E-01   0.620610152759E-01   0.175337361582E-01
      959   0.299027379273E-01   0.684490592903E-01   0.151028252706E-01
      960   0.334823580050E-01   0.841880169523E-01   0.211648106299E-02
      961   0.470263095597E-01   0.699204843303E-01   0.243127964836E-02
      962   0.125000000000E-01   0.866025403784E-01  -0.250000000000E-01
      963   0.125000000000E-01   0.866025403784E-01   0.250000000000E-01
      964   0.111689178577E-01   0.866025403784E-01  -0.178501536882E-01
      965   0.129742295524E-01   0.866025403784E-01  -0.102484276327E-01
      966   0.135494356349E-01   0.866025403784E-01   0.106231746067E-01
      967   0.307662299389E-01   0.866025403784E-01   0.585909584108E-04
      968   0.310023923591E-02   0.866025403784E-01   0.229833065176E-01
      969   0.387851060308E-02   0.866025403784E-01  -0.221982858371E-01
      970   0.443328278119E-02   0.866025403784E-01   0.154926022674E-01
      971   0.407280495584E-02   0.866025403784E-01  -0.152230385010E-01
      972   0.106477179061E-01   0.866025403784E-01   0.165352985286E-01
      973   0.124096181633E-01   0.866025403784E-01  -0.173610071039E-02
      974   0.124906383469E-01   0.866025403784E-01   0.243443248661E-02
      975   0.169445554790E-01   0.866025403784E-01  -0.388822609752E-02
      976   0.843929223668E-02   0.866025403784E-01  -0.809630224554E-02
      977   0.881399474527E-02   0.866025403784E-01   0.424005707996E-03
      978   0.407280495584E-02   0.866025403784E-01  -0.108124629429E-01
      979   0.443328278119E-02   0.866025403784E-01   0.110820267093E-01
      980   0.888079024563E-02   0.866025403784E-01   0.878987171994E-02
      981   0.753352201710E-02   0.866025403784E-01   0.169759087850E-01
      982   0.125311304122E-01   0.866025403784E-01   0.142681785089E-01
      983   0.113632122104E-01   0.866025403784E-01  -0.143749063521E-01
      984   0.795131555892E-02   0.866025403784E-01  -0.159213243382E-01
      985   0.132679118774E-01   0.866025403784E-01  -0.589865287614E-02
      986   0.171592837361E-01   0.866025403784E-01   0.426773537332E-02
      987   0.213093608214E-01   0.866025403784E-01   0.195753992523E-03
      988   0.135636603181E-01   0.866025403784E-01   0.642784179171E-02
      989   0.221676545355E-01   0.866025403784E-01  -0.396679817322E-02
      990   0.444750746444E-02   0.866025403784E-01   0.235013305573E-02
      991   0.444750746444E-02   0.866025403784E-01   0.688669389437E-02
      992   0.436648728084E-02   0.866025403784E-01  -0.646268818638E-02
      993   0.436648728084E-02   0.866025403784E-01  -0.182040014127E-02
      994   0.228660112954E-01   0.866025403784E-01  -0.844465575804E-02
      995   0.200975369612E-01   0.866025403784E-01  -0.119052486758E-01
      996   0.161918318511E-01   0.866025403784E-01  -0.121772569827E-01
      997   0.138426609764E-01   0.866025403784E-01  -0.188237071499E-01
      998   0.230807395526E-01   0.866025403784E-01   0.854983896562E-02
      999   0.223823827927E-01   0.866025403784E-01   0.418916329762E-02
     1000   0.172140004848E-01   0.866025403784E-01   0.119061485807E-01
1

 ***** ANSYS - ENGINEERING ANALYSIS SYSTEM  RELEASE 15.0      *****
[...]
     7797   0.147890683976E-01   0.841110351070E-01  -0.268584523366E-01
     7798   0.250000000000E-01   0.433012701892E-01   0.440256160491    
     7799   0.250000000000E-01   0.433012701892E-01   0.472406292870    
     7800   0.250000000000E-01   0.433012701892E-01   0.408106028112    
1

 ***** ANSYS - ENGINEERING ANALYSIS SYSTEM  RELEASE 15.0      *****
 ANSYS Academic Research                           
 00203145          VERSION=LINUX x64     17:53:12  SEP 22, 2014 CP=     11.726

                                                                               


   NODE        X                   Y                   Z
     7801   0.106617698859E-01   0.910459017356E-02   0.162908481434E-02
     7802   0.696479063122E-02   0.849644954095E-01  -0.334529383670E-01
     7803   0.533804783349E-02   0.847624316512E-01  -0.334529383670E-01
     7804   0.346254782400E-02   0.826021382759E-01  -0.391582261461E-01
     7805   0.375874717683E-01   0.116600512800E-02  -0.280682261405E-01
     7806   0.362929337136E-01   0.120488724901E-02  -0.268182261405E-01
     7807   0.386374256857E-01   0.237089237701E-02  -0.262500000000E-01
     7808   0.374855331022E-01   0.232804372463E-02  -0.293182261405E-01
     7809   0.385354870196E-01   0.353293097364E-02  -0.275000000000E-01
     7810   0.427159612964E-01   0.564357998393E-01   0.268001377583E-01
     7811   0.475084947388E-01   0.534716564916E-01   0.277475732401E-01
     7812   0.452074665576E-01   0.579483800710E-01   0.295477109984E-01
     7813   0.203901019344E-01   0.527697027899E-01   0.335762960464E-01
     7814   0.187387128634E-01   0.659732900997E-01   0.275000000000E-01
     7815   0.272093261913E-01   0.568230640910E-01   0.275000000000E-01
     7816   0.250251357993E-01   0.587494327073E-01   0.275000000000E-01
     7817   0.250000000000E-01   0.433012701892E-01   0.697457219525    
     7818   0.250000000000E-01   0.433012701892E-01   0.729607351904    
     7819   0.250000000000E-01   0.433012701892E-01  -0.232644068926    
     7820   0.250000000000E-01   0.215062975273E-01  -0.943371840194    
     7821   0.125000000000E-01   0.504892810406E-01  -0.990000000000    
     7822   0.333398793335E-02   0.746968544680E-01   0.357052877791E-01
     7823   0.287525724026E-02   0.784402747033E-01  -0.357052877791E-01
     7824   0.250000000000E-01   0.650962428511E-01   0.911236144063    
     7825   0.250000000000E-01   0.433012701892E-01   0.888028874521    
     7826   0.250000000000E-01   0.433012701892E-01   0.858207881421    
     7827   0.250000000000E-01   0.433012701892E-01  -0.296567239143    
     7828   0.250000000000E-01   0.433012701892E-01  -0.328717005572    
     7829   0.386374256857E-01   0.237089237701E-02   0.262500000000E-01
     7830   0.364758653953E-01   0.120488724901E-02   0.268317434431E-01
     7831   0.377704034500E-01   0.116600512800E-02   0.280817434431E-01
     7832   0.385354870196E-01   0.353293097364E-02   0.275000000000E-01
     7833   0.726100797522E-02   0.122910630539E-01  -0.244388007559E-02
     7834   0.371857752620E-01   0.481954899605E-02  -0.275000000000E-01
     7835   0.399104231870E-01   0.570784632336E-01   0.268001377583E-01
     7836   0.474204947346E-01   0.615532646083E-01   0.205890500453E-01
     7837   0.250000000000E-01   0.433012701892E-01   0.665307087146    
     7838   0.250000000000E-01   0.433012701892E-01   0.633156954766    
     7839   0.481244999905E-01   0.507394571961E-02  -0.326080265949E-01
     7840   0.355582150705E-01   0.521365747997E-01   0.275000000000E-01
     7841   0.377409128472E-01   0.115976827219E-01   0.833045410135E-01
     7842   0.368050106840E-01   0.649607558828E-01   0.925791028545E-01
     7843   0.250000000000E-01   0.433012701892E-01  -0.825896349997    
     7844   0.250000000000E-01   0.433012701892E-01  -0.793746217618    
     7845   0.250000000000E-01   0.433012701892E-01  -0.360866772001    
     7846   0.187550000950E-02   0.807620295487E-01   0.357052877791E-01
     7847   0.513528973490E-02   0.847624316512E-01   0.332516683650E-01
     7848   0.325978972540E-02   0.826021382759E-01   0.389569561441E-01
     7849   0.429191101342E-01   0.796864103908E-02  -0.376986605982E-01
     7850   0.448647453956E-01   0.187389279506E-02  -0.332515847273E-01
1

 ***** ANSYS - ENGINEERING ANALYSIS SYSTEM  RELEASE 15.0      *****
 ANSYS Academic Research                           
 00203145          VERSION=LINUX x64     17:53:12  SEP 22, 2014 CP=     11.727

                                                                               


   NODE        X                   Y                   Z
     7851   0.481244999905E-01   0.187389279506E-02  -0.335000000000E-01
     7852   0.125000000000E-01   0.580237020536E-01   0.986021154981    
     7853   0.250000000000E-01   0.144626242432E-01   0.987500000000    
     7854   0.375000000000E-01   0.361132593378E-01   0.990000000000    
     7855   0.375000000000E-01   0.216506350946E-01   0.977500000000    
     7856   0.125000000000E-01   0.292860924046E-01   0.986074557718    
     7857   0.172108775045E-02   0.140833477875E-01  -0.544156737674E-02
     7858   0.527102327946E-02   0.140006574409E-01  -0.357538070989E-02
     7859   0.236726792364E-01   0.805100339425E-01  -0.206893062996E-01
     7860   0.249319550769E-01   0.831686236942E-01  -0.180849825662E-01
     7861   0.267655545840E-01   0.819217942976E-01  -0.251205526993E-01
     7862   0.633780506426E-02   0.824406768058E-01  -0.334529383670E-01
     7863   0.169357790606E-01   0.689679788409E-01   0.275000000000E-01
     7864   0.399626979256E-01   0.433055129499E-01   0.353492715955E-01
     7865   0.421422133392E-01   0.641010439756E-01  -0.167617393863E-01
     7866   0.253984020880E-02   0.317536585757E-01   0.259137623771E-01
     7867   0.250000000000E-01   0.433012701892E-01  -0.761596085238    
     7868   0.125000000000E-01   0.148234681614E-01   0.973574557718    
     7869   0.295406251429E-01   0.831686236942E-01  -0.117859740132E-01
     7870   0.250000000000E-01   0.433012701892E-01  -0.375794496687    
     7871   0.134393566399E-01   0.853976531294E-01  -0.268584523366E-01
     7872   0.128142247380E-01   0.817829913824E-01  -0.275000000000E-01
     7873   0.114645129804E-01   0.830696094048E-01  -0.275000000000E-01
     7874   0.902293436229E-02   0.761523375140E-01  -0.412568668521E-01
     7875   0.577837942037E-02   0.770768054992E-01  -0.357052877791E-01
     7876   0.239392870967E-01   0.742144981872E-02   0.197421659186E-01
     7877   0.303238709817E-01   0.251894698805E-02   0.242327930714E-01
     7878   0.250000000000E-01   0.217949726619E-01   0.943386276442    
     7879   0.250000000000E-01   0.148234681614E-01   0.961074557718    
     7880   0.250000000000E-01   0.364741032561E-01   0.976074557718    
     7881   0.131195165990E-01   0.190318458501E-02  -0.431945730628E-02
     7882   0.138849756033E-01   0.225633749735E-02  -0.535861023538E-02
     7883   0.310743609581E-01   0.249150527142E-02  -0.261269653446E-01
     7884   0.349432219559E-01   0.249150527142E-02  -0.268182261405E-01
     7885   0.343001451518E-01   0.249150527142E-02  -0.299336779702E-01
     7886   0.365433526374E-01   0.801683804807E-02  -0.275000000000E-01
     7887   0.330642209394E-01   0.176345615375E-01  -0.275000000000E-01
     7888   0.431189005778E-01   0.728234218756E-01   0.398128418823E-02
     7889   0.299198511728E-01   0.338253830425E-01  -0.337256243080E-01
     7890   0.343917538383E-01   0.499392609769E-01  -0.337579933554E-01
     7891   0.358035832920E-01   0.472263328488E-01  -0.337579933554E-01
     7892   0.474344575728E-01   0.411771413939E-01  -0.348412291828E-01
     7893   0.480542988776E-01   0.436696834995E-01  -0.348412291828E-01
     7894   0.387947290077E-01   0.508160687929E-01  -0.275000000000E-01
     7895   0.720766326413E-02   0.778644958364E-01   0.408875285334E-01
     7896   0.155201192602E-01   0.720199096352E-01   0.275000000000E-01
     7897   0.720766326413E-02   0.818648979389E-01   0.430928163125E-01
     7898   0.337939438461E-02   0.558990087321E-01   0.369469638529E-01
     7899   0.269586167701E-02   0.525753810983E-01   0.369469638529E-01
     7900   0.471247427597E-01   0.741159894985E-02  -0.326080265949E-01
1

 ***** ANSYS - ENGINEERING ANALYSIS SYSTEM  RELEASE 15.0      *****
 ANSYS Academic Research                           
 00203145          VERSION=LINUX x64     17:53:12  SEP 22, 2014 CP=     11.728

                                                                               


   NODE        X                   Y                   Z
     7901   0.473411522324E-01   0.343118108016E-01   0.353491159997E-01
     7902   0.250000000000E-01   0.433012701892E-01   0.504556425249    
     7903   0.250000000000E-01   0.433012701892E-01  -0.697295820480    
     7904   0.250000000000E-01   0.433012701892E-01  -0.729445952859    
     7905   0.250000000000E-01   0.433012701892E-01   0.232644068926    
     7906   0.250000000000E-01   0.433012701892E-01   0.202892393166    
     7907   0.487532526717E-01   0.496032757486E-01   0.263118933100E-01
     7908   0.475065053433E-01   0.484312990756E-01   0.288118933100E-01
     7909   0.471247427597E-01   0.810748413615E-02   0.333932012398E-01
     7910   0.333398793335E-02   0.746968544680E-01  -0.357052877791E-01
     7911   0.250000000000E-01   0.433012701892E-01  -0.632995555721    
     7912   0.250000000000E-01   0.433012701892E-01  -0.665145688101    
     7913   0.269632820030E-02   0.451294566789E-01  -0.336247665229E-01
     7914   0.652665003193E-02   0.501670098769E-01  -0.333543898165E-01
     7915   0.721048576194E-02   0.534902931592E-01  -0.333543898165E-01
     7916   0.250000000000E-01   0.433012701892E-01   0.601006822387    
     7917   0.250000000000E-01   0.433012701892E-01   0.568856690008    
     7918   0.125000000000E-01   0.649519052838E-01  -0.977500000000    
     7919   0.375000000000E-01   0.717790722170E-01  -0.973571446303    
     7920   0.250000000000E-01   0.721399161352E-01  -0.987500000000    
     7921   0.375000000000E-01   0.573164479738E-01  -0.986071446303    
     7922   0.253486882243E-01   0.314421725001E-02   0.176638202080E-01
     7923   0.432380025979E-01   0.165791794999E-02  -0.332515847273E-01
     7924   0.250000000000E-01   0.649607558828E-01   0.107063375341    
     7925   0.404304344241E-02   0.129348624953E-01   0.542421976278E-02
     7926   0.836565333716E-02   0.128390865373E-01  -0.375714075807E-02
     7927   0.667302457920E-02   0.134850401064E-01  -0.346875412346E-02
     7928   0.886720583298E-02   0.253662560135E-02   0.626970998676E-02
     7929   0.899661962398E-02   0.182507059071E-02   0.440746530623E-02
     7930   0.530658570573E-02   0.460825907066E-02   0.730552672141E-02
     7931   0.374024198505E-02   0.385159300190E-01  -0.275000000000E-01
     7932   0.249150526122E-02   0.355641837884E-01  -0.262784654584E-01
     7933   0.249593367966E-02   0.386329268873E-01  -0.262500000000E-01
     7934   0.450150000821E-01   0.494368549732E-01   0.275000000000E-01
     7935   0.329745583993E-01   0.531905173260E-01   0.275000000000E-01
     7936   0.301664978392E-01   0.549592226860E-01   0.275000000000E-01
     7937   0.317561908579E-01   0.636669456153E-01   0.229571720585E-01
     7938   0.273188156421E-01   0.168627499771E-01  -0.262407565489E-01
     7939   0.329745583993E-01   0.531905173260E-01  -0.275000000000E-01
     7940   0.438649881648E-01   0.421154602530E-02  -0.332515847273E-01
     7941   0.134566473626E-01   0.785857023304E-01  -0.275000000000E-01
     7942   0.249593367966E-02   0.386329268873E-01   0.262500000000E-01
     7943   0.124918635131E-02   0.383316622693E-01   0.275803100034E-01
     7944   0.124674732835E-02   0.370426887279E-01   0.263303100034E-01
     7945   0.374024198505E-02   0.385159300190E-01   0.275000000000E-01
     7946   0.128142247380E-01   0.817829913824E-01   0.275000000000E-01
     7947   0.344798807398E-01   0.145826307432E-01   0.275000000000E-01
     7948   0.613504696566E-02   0.824406768058E-01   0.332516683650E-01
     7949   0.287525724026E-02   0.784402747033E-01   0.357052877791E-01
     7950   0.676203253262E-02   0.849644954095E-01   0.332516683650E-01
1

 ***** ANSYS - ENGINEERING ANALYSIS SYSTEM  RELEASE 15.0      *****
 ANSYS Academic Research                           
 00203145          VERSION=LINUX x64     17:53:12  SEP 22, 2014 CP=     11.729

                                                                               


   NODE        X                   Y                   Z
     7951   0.839574652125E-02   0.842744966538E-01   0.332516683650E-01
     7952   0.114645129804E-01   0.830696094048E-01   0.275000000000E-01
     7953   0.113625743143E-01   0.842316480014E-01   0.262500000000E-01
     7954   0.125145324352E-01   0.842744966538E-01   0.293182615743E-01
     7955   0.137071318238E-01   0.853976531294E-01   0.268182615743E-01
     7956   0.124125937691E-01   0.854365352504E-01   0.280682615743E-01
     7957   0.131577523286E-01   0.842744966538E-01   0.324339178788E-01
     7958   0.487508136487E-01   0.483143022072E-01   0.275618933100E-01
     7959   0.475040663203E-01   0.479696134911E-01   0.262500000000E-01
     7960   0.475084947388E-01   0.509535203623E-01   0.263118933100E-01
     7961   0.474204947346E-01   0.550290933713E-01   0.258400017928E-01
     7962   0.462597580150E-01   0.480866103595E-01   0.275000000000E-01
     7963   0.400438528940E-01   0.898013413983E-02  -0.350906340033E-01
     7964   0.481244999905E-01   0.576983090590E-02   0.333932012398E-01
     7965   0.466461674495E-01   0.314212816189E-01  -0.367777208559E-01
     7966   0.474344575728E-01   0.346771413939E-01  -0.367777208559E-01
     7967   0.125000000000E-01   0.723131212160E-01   0.973521154981    
     7968   0.836051062564E-02   0.826021382759E-01  -0.462387089616E-01
     7969   0.250000000000E-01   0.433012701892E-01   0.264605654035    
     7970   0.250000000000E-01   0.433012701892E-01   0.173140717406    
     7971   0.250000000000E-01   0.433012701892E-01  -0.568695290963    
     7972   0.250000000000E-01   0.433012701892E-01  -0.600845423342    
     7973   0.254648807459E-02   0.460825907066E-02   0.952572662619E-02
     7974   0.226797627894E-02   0.152523164070E-01   0.555974094452E-02
     7975   0.481446435352E-02   0.141341853398E-01   0.708942769451E-02
     7976   0.315605120436E-01   0.754008949146E-01   0.134983043298E-01
     7977   0.104674529895E-01   0.818648979389E-01   0.384339091194E-01
     7978   0.250000000000E-01   0.433012701892E-01  -0.440094761446    
     7979   0.250000000000E-01   0.433012701892E-01  -0.407944629067    
     7980   0.250000000000E-01   0.433012701892E-01   0.536706557629    
     7981   0.207555725803E-01   0.299211225153E-01   0.299151543155E-01
     7982   0.199923124978E-01   0.315432859497E-01   0.275000000000E-01
     7983   0.170351408499E-01   0.334071273547E-01   0.275000000000E-01
     7984   0.228211875474E-01   0.297558844895E-01   0.275000000000E-01
     7985   0.744669340408E-02   0.276270682715E-01   0.255079290673E-01
     7986   0.249150526122E-02   0.333045802790E-01   0.278212400137E-01
     7987   0.144404124430E-01   0.344664013994E-01   0.275000000000E-01
     7988   0.253984020880E-02   0.275389301064E-01   0.217319914413E-01
     7989   0.297806701351E-02   0.242872939880E-01  -0.200351784177E-01
     7990   0.121448185852E-01   0.854365352504E-01  -0.281084523366E-01
     7991   0.113625743143E-01   0.842316480014E-01  -0.262500000000E-01
     7992   0.466461674495E-01   0.245703289769E-01  -0.342375840116E-01
     7993   0.457411804612E-01   0.206048308317E-01  -0.342375840116E-01
     7994   0.300173867514E-01   0.550543587309E-01  -0.275000000000E-01
     7995   0.272093261913E-01   0.568230640910E-01  -0.275000000000E-01
     7996   0.439983862643E-01   0.403750943027E-01  -0.348412291828E-01
     7997   0.250000000000E-01   0.433012701892E-01  -0.885699735241    
     7998   0.479223838260E-01   0.711815773490E-01   0.716887999665E-02
     7999   0.466657065288E-01   0.118615506113E-01   0.333932012398E-01
     8000   0.319487090223E-01   0.135098090395E-01  -0.105279867149    
1

 ***** ANSYS - ENGINEERING ANALYSIS SYSTEM  RELEASE 15.0      *****
 ANSYS Academic Research                           
 00203145          VERSION=LINUX x64     17:53:12  SEP 22, 2014 CP=     11.730

                                                                               


   NODE        X                   Y                   Z
     8001   0.375000000000E-01   0.506624861214E-01   0.990000000000    
     8002   0.250000000000E-01   0.723131212160E-01   0.987500000000    
     8003   0.375000000000E-01   0.649519052838E-01   0.977500000000    
     8004   0.250000000000E-01   0.506624861214E-01   0.976021154981    
     8005   0.125000000000E-01   0.438353191882E-01   0.986074557718    
     8006   0.249349465670E-02   0.382146654009E-01   0.288303100034E-01
     8007   0.387138869613E-01   0.648762288330E-01  -0.492828564917E-01
     8008   0.250000000000E-01   0.434456077565E-01   0.958386276442    
     8009   0.250000000000E-01   0.650962428511E-01   0.943386276442    
     8010   0.250000000000E-01   0.217949726619E-01   0.911236144063    
     8011   0.250000000000E-01   0.433012701892E-01  -0.536545158584    
     8012   0.250000000000E-01   0.433012701892E-01  -0.504395026204    
     8013   0.368985634554E-01   0.846993557934E-01  -0.283451248217E-02
     8014   0.250000000000E-01   0.723131212160E-01   0.961021154981    
     8015   0.312612871366E-01   0.206292502787E-01  -0.275000000000E-01
     8016   0.498499991792E-02   0.371656854052E-01   0.275000000000E-01
     8017   0.249150526122E-02   0.356924441142E-01   0.263303100034E-01
     8018   0.207064635957E-01   0.632551657035E-01  -0.275000000000E-01
     8019   0.450951351023E-01   0.617607738428E-01  -0.192173503798E-01
     8020   0.411489666340E-01   0.738474638739E-01   0.405911128716E-02
     8021   0.250251357993E-01   0.587494327073E-01  -0.275000000000E-01
     8022   0.369560223237E-01   0.791881905239E-01   0.320480708861E-02
     8023   0.202287449360E-01   0.407611551117E-01   0.339845785499E-01
     8024   0.366356229540E-01   0.807427268821E-01   0.277470861743E-02
     8025   0.859850461985E-02   0.842744966538E-01  -0.334529383670E-01
     8026   0.352147888408E-01   0.445276511943E-01  -0.391441261023E-01
     8027   0.197765682187E-02   0.429390675188E-01   0.348412291828E-01
     8028   0.411054621767E-01   0.232804372463E-02   0.334643444938E-01
     8029   0.427391761653E-01   0.165791794999E-02   0.334643444938E-01
     8030   0.433661617323E-01   0.421154602530E-02   0.334643444938E-01
     8031   0.229397629723E-01   0.279947538989E-01   0.299151543155E-01
     8032   0.250053779394E-01   0.278295158732E-01   0.275000000000E-01
     8033   0.250000000000E-01   0.433012701892E-01  -0.472244893825    
     8034   0.330642209394E-01   0.176345615375E-01   0.275000000000E-01
     8035   0.989626624675E-02   0.156589745059E-01   0.813205362096E-02
     8036   0.375000000000E-01   0.427672211902E-01  -0.986071446303    
     8037   0.250000000000E-01   0.717790722170E-01  -0.961071446303    
     8038   0.250000000000E-01   0.433012701892E-01  -0.264605654035    
     8039   0.475084947388E-01   0.509100529534E-01  -0.263299538898E-01
     8040   0.839973288285E-02   0.364291349799E-01  -0.275000000000E-01
     8041   0.471247427597E-01   0.129118635726E-01  -0.342375840116E-01
     8042   0.328823895559E-02   0.211985711081E-01  -0.163604008781E-01
     8043   0.474035109944E-01   0.591644508008E-01  -0.216175246722E-01
     8044   0.447598906580E-01   0.728030018771E-01  -0.255474845023E-02
     8045   0.459951038639E-01   0.736066885520E-01  -0.112002738751E-02
     8046   0.328823895559E-02   0.180015862951E-01  -0.106633194969E-01
